Starting at Mon May  1 20:08:00 CEST 2017
Running on hosts: n3536
Running on 1 nodes.
Running on 24 processors.
Current working directory is /home/imerino/CM_MISOMIP/RUNS/PRUEBA
ELMER SOLVER (v 8.2) STARTED AT: 2017/05/01 20:08:02
ELMER SOLVER (v 8.2) STARTED AT: 2017/05/01 20:08:02
ELMER SOLVER (v 8.2) STARTED AT: 2017/05/01 20:08:02
ELMER SOLVER (v 8.2) STARTED AT: 2017/05/01 20:08:02
ELMER SOLVER (v 8.2) STARTED AT: 2017/05/01 20:08:02
ELMER SOLVER (v 8.2) STARTED AT: 2017/05/01 20:08:02
ELMER SOLVER (v 8.2) STARTED AT: 2017/05/01 20:08:02
ELMER SOLVER (v 8.2) STARTED AT: 2017/05/01 20:08:02
ELMER SOLVER (v 8.2) STARTED AT: 2017/05/01 20:08:02
ELMER SOLVER (v 8.2) STARTED AT: 2017/05/01 20:08:02
ELMER SOLVER (v 8.2) STARTED AT: 2017/05/01 20:08:02
ELMER SOLVER (v 8.2) STARTED AT: 2017/05/01 20:08:02
ELMER SOLVER (v 8.2) STARTED AT: 2017/05/01 20:08:02
ELMER SOLVER (v 8.2) STARTED AT: 2017/05/01 20:08:02
ELMER SOLVER (v 8.2) STARTED AT: 2017/05/01 20:08:02
ELMER SOLVER (v 8.2) STARTED AT: 2017/05/01 20:08:02
ELMER SOLVER (v 8.2) STARTED AT: 2017/05/01 20:08:02
ELMER SOLVER (v 8.2) STARTED AT: 2017/05/01 20:08:02
ELMER SOLVER (v 8.2) STARTED AT: 2017/05/01 20:08:02
ELMER SOLVER (v 8.2) STARTED AT: 2017/05/01 20:08:02
ELMER SOLVER (v 8.2) STARTED AT: 2017/05/01 20:08:02
ELMER SOLVER (v 8.2) STARTED AT: 2017/05/01 20:08:02
ELMER SOLVER (v 8.2) STARTED AT: 2017/05/01 20:08:02
ELMER SOLVER (v 8.2) STARTED AT: 2017/05/01 20:08:02
ParCommInit:  Initialize #PEs:           24
ParCommInit:  Initialize #PEs:           24
ParCommInit:  Initialize #PEs:           24
ParCommInit:  Initialize #PEs:           24
ParCommInit:  Initialize #PEs:           24
ParCommInit:  Initialize #PEs:           24
ParCommInit:  Initialize #PEs:           24
ParCommInit:  Initialize #PEs:           24
ParCommInit:  Initialize #PEs:           24
ParCommInit:  Initialize #PEs:           24
ParCommInit:  Initialize #PEs:           24
ParCommInit:  Initialize #PEs:           24
ParCommInit:  Initialize #PEs:           24
ParCommInit:  Initialize #PEs:           24
ParCommInit:  Initialize #PEs:           24
ParCommInit:  Initialize #PEs:           24
ParCommInit:  Initialize #PEs:           24
ParCommInit:  Initialize #PEs:           24
ParCommInit:  Initialize #PEs:           24
ParCommInit:  Initialize #PEs:           24
ParCommInit:  Initialize #PEs:           24
ParCommInit:  Initialize #PEs:           24
ParCommInit:  Initialize #PEs:           24
ParCommInit:  Initialize #PEs:           24
MAIN: 
MAIN: =============================================================
MAIN: ElmerSolver finite element software, Welcome!
MAIN: This program is free software licensed under (L)GPL
MAIN: Copyright 1st April 1995 - , CSC - IT Center for Science Ltd.
MAIN: Webpage http://www.csc.fi/elmer, Email elmeradm@csc.fi
MAIN: Version: 8.2 (Rev: 3e9803d, Compiled: 2017-04-28)
MAIN:  Running in parallel using 24 tasks.
MAIN:  MUMPS library linked in.
MAIN:  Intel MKL linked in.
MAIN: =============================================================
MAIN: 
MAIN: 
MAIN: -------------------------------------
MAIN: Reading Model: Ice1r1.sif
LoadInputFile: Scanning input file: Ice1r1.sif
LoadInputFile: Loading input file: Ice1r1.sif
Model Input:  Unlisted keyword: [sea level] in section: [constants]
Model Input:  Unlisted keyword: [water density] in section: [constants]
Model Input:  Unlisted keyword: [restart before initial conditions] in section: [simulation]
Model Input:  Unlisted keyword: [meltfactor] in section: [simulation]
Model Input:  Unlisted keyword: [melt] in section: [initial condition 1]
Model Input:  Unlisted keyword: [top surface accumulation] in section: [body force 1]
Model Input:  Unlisted keyword: [water pressure] in section: [body force 1]
Loading user function library: [./Executables/USF_WaterPressure]...[WaterPressure]
Model Input:  Unlisted keyword: [ssastar integrated viscosity] in section: [material 1]
Model Input:  Unlisted keyword: [ssa mean viscosity] in section: [material 1]
Model Input:  Unlisted keyword: [ssa mean density] in section: [material 1]
Model Input:  Unlisted keyword: [ssa critical thickness] in section: [material 1]
Model Input:  Unlisted keyword: [ssa friction law] in section: [material 1]
Model Input:  Unlisted keyword: [ssa friction exponent] in section: [material 1]
Model Input:  Unlisted keyword: [ssa friction parameter] in section: [material 1]
Model Input:  Unlisted keyword: [ssa friction linear velocity] in section: [material 1]
Model Input:  Unlisted keyword: [ssa friction post-peak] in section: [material 1]
Model Input:  Unlisted keyword: [ssa friction maximum value] in section: [material 1]
Model Input:  Unlisted keyword: [min h] in section: [material 1]
Model Input:  Unlisted keyword: [nonlinear system newton max divergent iterations] in section: [solver 3]
Model Input:  Unlisted keyword: [sub-element gl parameterization] in section: [solver 3]
Model Input:  Unlisted keyword: [gl integration points number] in section: [solver 3]
Model Input:  Unlisted keyword: [solve ssa star] in section: [solver 3]
Model Input:  Unlisted keyword: [ssa star internal viscosity integration] in section: [solver 3]
Model Input:  Unlisted keyword: [ssa star integrations levels] in section: [solver 3]
Model Input:  Unlisted keyword: [ssastar integration levels ratio] in section: [solver 3]
Model Input:  Unlisted keyword: [compute dhdt] in section: [solver 4]
Model Input:  Unlisted keyword: [draft file] in section: [solver 7]
Model Input:  Unlisted keyword: [melt rates file] in section: [solver 7]
Model Input:  Unlisted keyword: [ssavelocity 2] in section: [boundary condition 1]
Model Input:  Unlisted keyword: [calving front] in section: [boundary condition 2]
Model Input:  Unlisted keyword: [ssavelocity 2] in section: [boundary condition 3]
Model Input:  Unlisted keyword: [ssavelocity 1] in section: [boundary condition 4]
Model Input:  Unlisted keyword: [ssavelocity 2] in section: [boundary condition 4]
WARNING:: CheckTimer: Requesting time from non-existing timer: LoadMesh
WARNING:: CheckTimer: Requesting time from non-existing timer: MeshStabParams
WARNING:: CheckTimer: Requesting time from non-existing timer: LoadMesh
WARNING:: CheckTimer: Requesting time from non-existing timer: MeshStabParams
WARNING:: CheckTimer: Requesting time from non-existing timer: LoadMesh
WARNING:: CheckTimer: Requesting time from non-existing timer: MeshStabParams
WARNING:: CheckLinearSolverOptions: Only MUMPS and CPardiso direct solver interface implemented in parallel, trying MUMPS!
WARNING:: CheckTimer: Requesting time from non-existing timer: LoadMesh
WARNING:: CheckTimer: Requesting time from non-existing timer: LoadMesh
WARNING:: CheckTimer: Requesting time from non-existing timer: LoadMesh
WARNING:: CheckTimer: Requesting time from non-existing timer: MeshStabParams
WARNING:: CheckLinearSolverOptions: Only MUMPS and CPardiso direct solver interface implemented in parallel, trying MUMPS!
WARNING:: CheckTimer: Requesting time from non-existing timer: MeshStabParams
WARNING:: CheckTimer: Requesting time from non-existing timer: MeshStabParams
WARNING:: CheckTimer: Requesting time from non-existing timer: LoadMesh
WARNING:: CheckTimer: Requesting time from non-existing timer: MeshStabParams
WARNING:: CheckLinearSolverOptions: Only MUMPS and CPardiso direct solver interface implemented in parallel, trying MUMPS!
WARNING:: CheckLinearSolverOptions: Only MUMPS and CPardiso direct solver interface implemented in parallel, trying MUMPS!
WARNING:: CheckLinearSolverOptions: Only MUMPS and CPardiso direct solver interface implemented in parallel, trying MUMPS!
WARNING:: CheckLinearSolverOptions: Only MUMPS and CPardiso direct solver interface implemented in parallel, trying MUMPS!
WARNING:: CheckLinearSolverOptions: Only MUMPS and CPardiso direct solver interface implemented in parallel, trying MUMPS!
WARNING:: CheckLinearSolverOptions: Only MUMPS and CPardiso direct solver interface implemented in parallel, trying MUMPS!
WARNING:: CheckTimer: Requesting time from non-existing timer: LoadMesh
WARNING:: CheckLinearSolverOptions: Only MUMPS and CPardiso direct solver interface implemented in parallel, trying MUMPS!
WARNING:: CheckLinearSolverOptions: Only MUMPS and CPardiso direct solver interface implemented in parallel, trying MUMPS!
WARNING:: CheckTimer: Requesting time from non-existing timer: MeshStabParams
WARNING:: CheckTimer: Requesting time from non-existing timer: LoadMesh
WARNING:: CheckLinearSolverOptions: Only MUMPS and CPardiso direct solver interface implemented in parallel, trying MUMPS!
WARNING:: CheckLinearSolverOptions: Only MUMPS and CPardiso direct solver interface implemented in parallel, trying MUMPS!
WARNING:: CheckTimer: Requesting time from non-existing timer: MeshStabParams
WARNING:: CheckTimer: Requesting time from non-existing timer: LoadMesh
WARNING:: CheckLinearSolverOptions: Only MUMPS and CPardiso direct solver interface implemented in parallel, trying MUMPS!
WARNING:: CheckTimer: Requesting time from non-existing timer: MeshStabParams
WARNING:: CheckLinearSolverOptions: Only MUMPS and CPardiso direct solver interface implemented in parallel, trying MUMPS!
WARNING:: CheckLinearSolverOptions: Only MUMPS and CPardiso direct solver interface implemented in parallel, trying MUMPS!
WARNING:: CheckTimer: Requesting time from non-existing timer: LoadMesh
WARNING:: CheckTimer: Requesting time from non-existing timer: MeshStabParams
WARNING:: CheckLinearSolverOptions: Only MUMPS and CPardiso direct solver interface implemented in parallel, trying MUMPS!
WARNING:: CheckTimer: Requesting time from non-existing timer: LoadMesh
WARNING:: CheckLinearSolverOptions: Only MUMPS and CPardiso direct solver interface implemented in parallel, trying MUMPS!
WARNING:: CheckTimer: Requesting time from non-existing timer: MeshStabParams
WARNING:: CheckLinearSolverOptions: Only MUMPS and CPardiso direct solver interface implemented in parallel, trying MUMPS!
WARNING:: CheckLinearSolverOptions: Only MUMPS and CPardiso direct solver interface implemented in parallel, trying MUMPS!
WARNING:: CheckLinearSolverOptions: Only MUMPS and CPardiso direct solver interface implemented in parallel, trying MUMPS!
WARNING:: CheckLinearSolverOptions: Only MUMPS and CPardiso direct solver interface implemented in parallel, trying MUMPS!
WARNING:: CheckTimer: Requesting time from non-existing timer: LoadMesh
WARNING:: CheckTimer: Requesting time from non-existing timer: LoadMesh
WARNING:: CheckTimer: Requesting time from non-existing timer: MeshStabParams
WARNING:: CheckTimer: Requesting time from non-existing timer: MeshStabParams
WARNING:: CheckLinearSolverOptions: Only MUMPS and CPardiso direct solver interface implemented in parallel, trying MUMPS!
WARNING:: CheckLinearSolverOptions: Only MUMPS and CPardiso direct solver interface implemented in parallel, trying MUMPS!
WARNING:: CheckTimer: Requesting time from non-existing timer: LoadMesh
WARNING:: CheckTimer: Requesting time from non-existing timer: LoadMesh
WARNING:: CheckLinearSolverOptions: Only MUMPS and CPardiso direct solver interface implemented in parallel, trying MUMPS!
WARNING:: CheckTimer: Requesting time from non-existing timer: MeshStabParams
WARNING:: CheckTimer: Requesting time from non-existing timer: MeshStabParams
WARNING:: CheckTimer: Requesting time from non-existing timer: LoadMesh
WARNING:: CheckTimer: Requesting time from non-existing timer: MeshStabParams
WARNING:: CheckLinearSolverOptions: Only MUMPS and CPardiso direct solver interface implemented in parallel, trying MUMPS!
WARNING:: CheckLinearSolverOptions: Only MUMPS and CPardiso direct solver interface implemented in parallel, trying MUMPS!
WARNING:: CheckLinearSolverOptions: Only MUMPS and CPardiso direct solver interface implemented in parallel, trying MUMPS!
WARNING:: CheckLinearSolverOptions: Only MUMPS and CPardiso direct solver interface implemented in parallel, trying MUMPS!
WARNING:: CheckLinearSolverOptions: Only MUMPS and CPardiso direct solver interface implemented in parallel, trying MUMPS!
WARNING:: CheckLinearSolverOptions: Only MUMPS and CPardiso direct solver interface implemented in parallel, trying MUMPS!
WARNING:: CheckTimer: Requesting time from non-existing timer: LoadMesh
WARNING:: CheckLinearSolverOptions: Only MUMPS and CPardiso direct solver interface implemented in parallel, trying MUMPS!
WARNING:: CheckTimer: Requesting time from non-existing timer: MeshStabParams
WARNING:: CheckLinearSolverOptions: Only MUMPS and CPardiso direct solver interface implemented in parallel, trying MUMPS!
WARNING:: CheckLinearSolverOptions: Only MUMPS and CPardiso direct solver interface implemented in parallel, trying MUMPS!
WARNING:: CheckLinearSolverOptions: Only MUMPS and CPardiso direct solver interface implemented in parallel, trying MUMPS!
WARNING:: CheckLinearSolverOptions: Only MUMPS and CPardiso direct solver interface implemented in parallel, trying MUMPS!
WARNING:: CheckTimer: Requesting time from non-existing timer: LoadMesh
WARNING:: CheckTimer: Requesting time from non-existing timer: LoadMesh
WARNING:: CheckTimer: Requesting time from non-existing timer: MeshStabParams
WARNING:: CheckTimer: Requesting time from non-existing timer: MeshStabParams
WARNING:: CheckLinearSolverOptions: Only MUMPS and CPardiso direct solver interface implemented in parallel, trying MUMPS!
WARNING:: CheckLinearSolverOptions: Only MUMPS and CPardiso direct solver interface implemented in parallel, trying MUMPS!
WARNING:: CheckLinearSolverOptions: Only MUMPS and CPardiso direct solver interface implemented in parallel, trying MUMPS!
WARNING:: CheckTimer: Requesting time from non-existing timer: LoadMesh
WARNING:: CheckTimer: Requesting time from non-existing timer: LoadMesh
WARNING:: CheckLinearSolverOptions: Only MUMPS and CPardiso direct solver interface implemented in parallel, trying MUMPS!
WARNING:: CheckTimer: Requesting time from non-existing timer: MeshStabParams
WARNING:: CheckLinearSolverOptions: Only MUMPS and CPardiso direct solver interface implemented in parallel, trying MUMPS!
WARNING:: CheckTimer: Requesting time from non-existing timer: MeshStabParams
WARNING:: CheckTimer: Requesting time from non-existing timer: LoadMesh
WARNING:: CheckTimer: Requesting time from non-existing timer: MeshStabParams
WARNING:: CheckLinearSolverOptions: Only MUMPS and CPardiso direct solver interface implemented in parallel, trying MUMPS!
WARNING:: CheckLinearSolverOptions: Only MUMPS and CPardiso direct solver interface implemented in parallel, trying MUMPS!
WARNING:: CheckTimer: Requesting time from non-existing timer: LoadMesh
WARNING:: CheckTimer: Requesting time from non-existing timer: MeshStabParams
WARNING:: CheckLinearSolverOptions: Only MUMPS and CPardiso direct solver interface implemented in parallel, trying MUMPS!
WARNING:: CheckLinearSolverOptions: Only MUMPS and CPardiso direct solver interface implemented in parallel, trying MUMPS!
WARNING:: CheckLinearSolverOptions: Only MUMPS and CPardiso direct solver interface implemented in parallel, trying MUMPS!
WARNING:: CheckLinearSolverOptions: Only MUMPS and CPardiso direct solver interface implemented in parallel, trying MUMPS!
WARNING:: CheckLinearSolverOptions: Only MUMPS and CPardiso direct solver interface implemented in parallel, trying MUMPS!
WARNING:: CheckLinearSolverOptions: Only MUMPS and CPardiso direct solver interface implemented in parallel, trying MUMPS!
MAIN: 
MAIN: -------------------------------------
MAIN:  Time: 1/6   4202.59999999938
MAIN: -------------------------------------
MAIN: 
EffectivePressure: Constant >Gravity< not found. Setting to -9.746289e15
USF_WaterPressure: Constant >Gravity< not found. Setting to -9.746289e15
SSASolver-SSABasalSolver: Memory allocation done.
ComputeChange: NS (ITER=1) (NRM,RELC): (  232.26211      2.0000000     ) :: ssa
ComputeChange: NS (ITER=2) (NRM,RELC): (  232.28303     0.90064313E-04 ) :: ssa
ComputeChange: NS (ITER=3) (NRM,RELC): (  232.33935     0.24244137E-03 ) :: ssa
ComputeChange: NS (ITER=4) (NRM,RELC): (  232.33937     0.88433705E-07 ) :: ssa
ComputeChange: NS (ITER=5) (NRM,RELC): (  232.33937     0.30582106E-14 ) :: ssa
ComputeChange: NS (ITER=2) (NRM,RELC): (  824.00581      2.0000000     ) :: thickness
ComputeChange: NS (ITER=4) (NRM,RELC): (  824.00581     0.13796849E-15 ) :: thickness
NUMERICAL ERROR:: SolveEquations: Coupled system did not converge
NUMERICAL ERROR:: SolveEquations: Coupled system did not converge
NUMERICAL ERROR:: SolveEquations: Coupled system did not converge
NUMERICAL ERROR:: SolveEquations: Coupled system did not converge
NUMERICAL ERROR:: SolveEquations: Coupled system did not converge
NUMERICAL ERROR:: SolveEquations: Coupled system did not converge
NUMERICAL ERROR:: SolveEquations: Coupled system did not converge
NUMERICAL ERROR:: SolveEquations: Coupled system did not converge
NUMERICAL ERROR:: SolveEquations: Coupled system did not converge
NUMERICAL ERROR:: SolveEquations: Coupled system did not converge
NUMERICAL ERROR:: SolveEquations: Coupled system did not converge
NUMERICAL ERROR:: SolveEquations: Coupled system did not converge
NUMERICAL ERROR:: SolveEquations: Coupled system did not converge
NUMERICAL ERROR:: SolveEquations: Coupled system did not converge
NUMERICAL ERROR:: SolveEquations: Coupled system did not converge
NUMERICAL ERROR:: SolveEquations: Coupled system did not converge
NUMERICAL ERROR:: SolveEquations: Coupled system did not converge
NUMERICAL ERROR:: SolveEquations: Coupled system did not converge
NUMERICAL ERROR:: SolveEquations: Coupled system did not converge
NUMERICAL ERROR:: SolveEquations: Coupled system did not converge
NUMERICAL ERROR:: SolveEquations: Coupled system did not converge
NUMERICAL ERROR:: SolveEquations: Coupled system did not converge
NUMERICAL ERROR:: SolveEquations: Coupled system did not converge
NUMERICAL ERROR:: SolveEquations: Coupled system did not converge
MAIN: 
MAIN: -------------------------------------
MAIN:  Time: 2/6   4202.69999999938
MAIN: Estimated time left:  1.3 minutes
MAIN: -------------------------------------
MAIN: 
EffectivePressure: Constant >Gravity< not found. Setting to -9.746289e15
ComputeChange: NS (ITER=1) (NRM,RELC): (  231.66809     0.28934181E-02 ) :: ssa
ComputeChange: NS (ITER=2) (NRM,RELC): (  231.21127     0.19738266E-02 ) :: ssa
ComputeChange: NS (ITER=3) (NRM,RELC): (  230.91385     0.12871457E-02 ) :: ssa
ComputeChange: NS (ITER=4) (NRM,RELC): (  230.71440     0.86413874E-03 ) :: ssa
ComputeChange: NS (ITER=5) (NRM,RELC): (  230.26007     0.19711789E-02 ) :: ssa
ComputeChange: NS (ITER=6) (NRM,RELC): (  230.26151     0.62855361E-05 ) :: ssa
ComputeChange: NS (ITER=7) (NRM,RELC): (  230.26151     0.11525837E-09 ) :: ssa
ComputeChange: NS (ITER=2) (NRM,RELC): (  823.55235     0.55046994E-03 ) :: thickness
ComputeChange: NS (ITER=4) (NRM,RELC): (  823.55235      0.0000000     ) :: thickness
NUMERICAL ERROR:: SolveEquations: Coupled system did not converge
MAIN: 
MAIN: -------------------------------------
MAIN:  Time: 3/6   4202.79999999938
NUMERICAL ERROR:: SolveEquations: Coupled system did not converge
NUMERICAL ERROR:: SolveEquations: Coupled system did not converge
NUMERICAL ERROR:: SolveEquations: Coupled system did not converge
NUMERICAL ERROR:: SolveEquations: Coupled system did not converge
NUMERICAL ERROR:: SolveEquations: Coupled system did not converge
NUMERICAL ERROR:: SolveEquations: Coupled system did not converge
NUMERICAL ERROR:: SolveEquations: Coupled system did not converge
NUMERICAL ERROR:: SolveEquations: Coupled system did not converge
NUMERICAL ERROR:: SolveEquations: Coupled system did not converge
NUMERICAL ERROR:: SolveEquations: Coupled system did not converge
NUMERICAL ERROR:: SolveEquations: Coupled system did not converge
NUMERICAL ERROR:: SolveEquations: Coupled system did not converge
NUMERICAL ERROR:: SolveEquations: Coupled system did not converge
NUMERICAL ERROR:: SolveEquations: Coupled system did not converge
NUMERICAL ERROR:: SolveEquations: Coupled system did not converge
NUMERICAL ERROR:: SolveEquations: Coupled system did not converge
NUMERICAL ERROR:: SolveEquations: Coupled system did not converge
NUMERICAL ERROR:: SolveEquations: Coupled system did not converge
NUMERICAL ERROR:: SolveEquations: Coupled system did not converge
NUMERICAL ERROR:: SolveEquations: Coupled system did not converge
NUMERICAL ERROR:: SolveEquations: Coupled system did not converge
NUMERICAL ERROR:: SolveEquations: Coupled system did not converge
NUMERICAL ERROR:: SolveEquations: Coupled system did not converge
MAIN: Estimated time left: 44.2 seconds
MAIN: -------------------------------------
MAIN: 
EffectivePressure: Constant >Gravity< not found. Setting to -9.746289e15
ComputeChange: NS (ITER=1) (NRM,RELC): (  229.61922     0.27933267E-02 ) :: ssa
ComputeChange: NS (ITER=2) (NRM,RELC): (  229.19695     0.18406621E-02 ) :: ssa
ComputeChange: NS (ITER=3) (NRM,RELC): (  228.92530     0.11859346E-02 ) :: ssa
ComputeChange: NS (ITER=4) (NRM,RELC): (  228.74466     0.78938523E-03 ) :: ssa
ComputeChange: NS (ITER=5) (NRM,RELC): (  228.34168     0.17632595E-02 ) :: ssa
ComputeChange: NS (ITER=6) (NRM,RELC): (  228.34294     0.54890284E-05 ) :: ssa
ComputeChange: NS (ITER=7) (NRM,RELC): (  228.34294     0.93263556E-10 ) :: ssa
ComputeChange: NS (ITER=2) (NRM,RELC): (  823.10349     0.54517227E-03 ) :: thickness
ComputeChange: NS (ITER=4) (NRM,RELC): (  823.10349      0.0000000     ) :: thickness
NUMERICAL ERROR:: SolveEquations: Coupled system did not converge
MAIN: 
MAIN: -------------------------------------
MAIN:  Time: 4/6   4202.89999999938
NUMERICAL ERROR:: SolveEquations: Coupled system did not converge
NUMERICAL ERROR:: SolveEquations: Coupled system did not converge
NUMERICAL ERROR:: SolveEquations: Coupled system did not converge
NUMERICAL ERROR:: SolveEquations: Coupled system did not converge
NUMERICAL ERROR:: SolveEquations: Coupled system did not converge
NUMERICAL ERROR:: SolveEquations: Coupled system did not converge
NUMERICAL ERROR:: SolveEquations: Coupled system did not converge
NUMERICAL ERROR:: SolveEquations: Coupled system did not converge
NUMERICAL ERROR:: SolveEquations: Coupled system did not converge
NUMERICAL ERROR:: SolveEquations: Coupled system did not converge
NUMERICAL ERROR:: SolveEquations: Coupled system did not converge
NUMERICAL ERROR:: SolveEquations: Coupled system did not converge
NUMERICAL ERROR:: SolveEquations: Coupled system did not converge
NUMERICAL ERROR:: SolveEquations: Coupled system did not converge
NUMERICAL ERROR:: SolveEquations: Coupled system did not converge
NUMERICAL ERROR:: SolveEquations: Coupled system did not converge
NUMERICAL ERROR:: SolveEquations: Coupled system did not converge
NUMERICAL ERROR:: SolveEquations: Coupled system did not converge
NUMERICAL ERROR:: SolveEquations: Coupled system did not converge
NUMERICAL ERROR:: SolveEquations: Coupled system did not converge
NUMERICAL ERROR:: SolveEquations: Coupled system did not converge
NUMERICAL ERROR:: SolveEquations: Coupled system did not converge
NUMERICAL ERROR:: SolveEquations: Coupled system did not converge
MAIN: Estimated time left: 23.4 seconds
MAIN: -------------------------------------
MAIN: 
EffectivePressure: Constant >Gravity< not found. Setting to -9.746289e15
ComputeChange: NS (ITER=1) (NRM,RELC): (  227.73750     0.26549553E-02 ) :: ssa
ComputeChange: NS (ITER=2) (NRM,RELC): (  227.35303     0.16896211E-02 ) :: ssa
ComputeChange: NS (ITER=3) (NRM,RELC): (  227.10892     0.10742868E-02 ) :: ssa
ComputeChange: NS (ITER=4) (NRM,RELC): (  226.94806     0.70855053E-03 ) :: ssa
ComputeChange: NS (ITER=5) (NRM,RELC): (  226.59640     0.15507285E-02 ) :: ssa
ComputeChange: NS (ITER=6) (NRM,RELC): (  226.59749     0.48127082E-05 ) :: ssa
ComputeChange: NS (ITER=7) (NRM,RELC): (  226.59749     0.78650364E-10 ) :: ssa
ComputeChange: NS (ITER=2) (NRM,RELC): (  822.65916     0.53996271E-03 ) :: thickness
ComputeChange: NS (ITER=4) (NRM,RELC): (  822.65916      0.0000000     ) :: thickness
NUMERICAL ERROR:: SolveEquations: Coupled system did not converge
MAIN: 
MAIN: -------------------------------------
MAIN:  Time: 5/6   4202.99999999939
NUMERICAL ERROR:: SolveEquations: Coupled system did not converge
NUMERICAL ERROR:: SolveEquations: Coupled system did not converge
NUMERICAL ERROR:: SolveEquations: Coupled system did not converge
NUMERICAL ERROR:: SolveEquations: Coupled system did not converge
NUMERICAL ERROR:: SolveEquations: Coupled system did not converge
NUMERICAL ERROR:: SolveEquations: Coupled system did not converge
NUMERICAL ERROR:: SolveEquations: Coupled system did not converge
NUMERICAL ERROR:: SolveEquations: Coupled system did not converge
NUMERICAL ERROR:: SolveEquations: Coupled system did not converge
NUMERICAL ERROR:: SolveEquations: Coupled system did not converge
NUMERICAL ERROR:: SolveEquations: Coupled system did not converge
NUMERICAL ERROR:: SolveEquations: Coupled system did not converge
NUMERICAL ERROR:: SolveEquations: Coupled system did not converge
NUMERICAL ERROR:: SolveEquations: Coupled system did not converge
NUMERICAL ERROR:: SolveEquations: Coupled system did not converge
NUMERICAL ERROR:: SolveEquations: Coupled system did not converge
NUMERICAL ERROR:: SolveEquations: Coupled system did not converge
NUMERICAL ERROR:: SolveEquations: Coupled system did not converge
NUMERICAL ERROR:: SolveEquations: Coupled system did not converge
NUMERICAL ERROR:: SolveEquations: Coupled system did not converge
NUMERICAL ERROR:: SolveEquations: Coupled system did not converge
NUMERICAL ERROR:: SolveEquations: Coupled system did not converge
NUMERICAL ERROR:: SolveEquations: Coupled system did not converge
MAIN: Estimated time left: 15.0 seconds
MAIN: -------------------------------------
MAIN: 
EffectivePressure: Constant >Gravity< not found. Setting to -9.746289e15
ComputeChange: NS (ITER=1) (NRM,RELC): (  226.00304     0.26268158E-02 ) :: ssa
ComputeChange: NS (ITER=2) (NRM,RELC): (  225.63913     0.16114953E-02 ) :: ssa
ComputeChange: NS (ITER=3) (NRM,RELC): (  225.41093     0.10118813E-02 ) :: ssa
ComputeChange: NS (ITER=4) (NRM,RELC): (  225.26186     0.66153755E-03 ) :: ssa
ComputeChange: NS (ITER=5) (NRM,RELC): (  224.94276     0.14175843E-02 ) :: ssa
ComputeChange: NS (ITER=6) (NRM,RELC): (  224.94376     0.44693501E-05 ) :: ssa
ComputeChange: NS (ITER=7) (NRM,RELC): (  224.94376     0.73294034E-10 ) :: ssa
ComputeChange: NS (ITER=2) (NRM,RELC): (  822.21931     0.53481392E-03 ) :: thickness
ComputeChange: NS (ITER=4) (NRM,RELC): (  822.21931      0.0000000     ) :: thickness
NUMERICAL ERROR:: SolveEquations: Coupled system did not converge
MAIN: 
MAIN: -------------------------------------
MAIN:  Time: 6/6   4203.09999999939
NUMERICAL ERROR:: SolveEquations: Coupled system did not converge
NUMERICAL ERROR:: SolveEquations: Coupled system did not converge
NUMERICAL ERROR:: SolveEquations: Coupled system did not converge
NUMERICAL ERROR:: SolveEquations: Coupled system did not converge
NUMERICAL ERROR:: SolveEquations: Coupled system did not converge
NUMERICAL ERROR:: SolveEquations: Coupled system did not converge
NUMERICAL ERROR:: SolveEquations: Coupled system did not converge
NUMERICAL ERROR:: SolveEquations: Coupled system did not converge
NUMERICAL ERROR:: SolveEquations: Coupled system did not converge
NUMERICAL ERROR:: SolveEquations: Coupled system did not converge
NUMERICAL ERROR:: SolveEquations: Coupled system did not converge
NUMERICAL ERROR:: SolveEquations: Coupled system did not converge
NUMERICAL ERROR:: SolveEquations: Coupled system did not converge
NUMERICAL ERROR:: SolveEquations: Coupled system did not converge
NUMERICAL ERROR:: SolveEquations: Coupled system did not converge
NUMERICAL ERROR:: SolveEquations: Coupled system did not converge
NUMERICAL ERROR:: SolveEquations: Coupled system did not converge
NUMERICAL ERROR:: SolveEquations: Coupled system did not converge
NUMERICAL ERROR:: SolveEquations: Coupled system did not converge
NUMERICAL ERROR:: SolveEquations: Coupled system did not converge
NUMERICAL ERROR:: SolveEquations: Coupled system did not converge
NUMERICAL ERROR:: SolveEquations: Coupled system did not converge
NUMERICAL ERROR:: SolveEquations: Coupled system did not converge
MAIN: Estimated time left:  7.9 seconds
MAIN: -------------------------------------
MAIN: 
EffectivePressure: Constant >Gravity< not found. Setting to -9.746289e15
ComputeChange: NS (ITER=1) (NRM,RELC): (  224.40027     0.24190614E-02 ) :: ssa
ComputeChange: NS (ITER=2) (NRM,RELC): (  224.08193     0.14196135E-02 ) :: ssa
ComputeChange: NS (ITER=3) (NRM,RELC): (  223.88631     0.87337971E-03 ) :: ssa
ComputeChange: NS (ITER=4) (NRM,RELC): (  223.49888     0.17319684E-02 ) :: ssa
ComputeChange: NS (ITER=5) (NRM,RELC): (  223.50085     0.87993925E-05 ) :: ssa
ComputeChange: NS (ITER=6) (NRM,RELC): (  223.50085     0.35994019E-09 ) :: ssa
ComputeChange: NS (ITER=2) (NRM,RELC): (  821.78385     0.52976095E-03 ) :: thickness
ComputeChange: NS (ITER=4) (NRM,RELC): (  821.78385      0.0000000     ) :: thickness
NUMERICAL ERROR:: SolveEquations: Coupled system did not converge
NUMERICAL ERROR:: SolveEquations: Coupled system did not converge
NUMERICAL ERROR:: SolveEquations: Coupled system did not converge
NUMERICAL ERROR:: SolveEquations: Coupled system did not converge
NUMERICAL ERROR:: SolveEquations: Coupled system did not converge
NUMERICAL ERROR:: SolveEquations: Coupled system did not converge
NUMERICAL ERROR:: SolveEquations: Coupled system did not converge
NUMERICAL ERROR:: SolveEquations: Coupled system did not converge
NUMERICAL ERROR:: SolveEquations: Coupled system did not converge
NUMERICAL ERROR:: SolveEquations: Coupled system did not converge
NUMERICAL ERROR:: SolveEquations: Coupled system did not converge
NUMERICAL ERROR:: SolveEquations: Coupled system did not converge
NUMERICAL ERROR:: SolveEquations: Coupled system did not converge
NUMERICAL ERROR:: SolveEquations: Coupled system did not converge
NUMERICAL ERROR:: SolveEquations: Coupled system did not converge
NUMERICAL ERROR:: SolveEquations: Coupled system did not converge
NUMERICAL ERROR:: SolveEquations: Coupled system did not converge
NUMERICAL ERROR:: SolveEquations: Coupled system did not converge
NUMERICAL ERROR:: SolveEquations: Coupled system did not converge
NUMERICAL ERROR:: SolveEquations: Coupled system did not converge
NUMERICAL ERROR:: SolveEquations: Coupled system did not converge
NUMERICAL ERROR:: SolveEquations: Coupled system did not converge
NUMERICAL ERROR:: SolveEquations: Coupled system did not converge
NUMERICAL ERROR:: SolveEquations: Coupled system did not converge
ElmerSolver: *** Elmer Solver: ALL DONE ***
ElmerSolver: The end
SOLVER TOTAL TIME(CPU,REAL):        39.24       63.20
ELMER SOLVER FINISHED AT: 2017/05/01 20:09:05
0

hola
/scratch/cnt0021/gge6066/imerino/ELMER_MISOMIP/PRUEBA/Results/Ice1r1/ice1r10002.pvtu
args
Interpolating Elmer to NEMO grid
           
Elmer grid is found in; 
        /scratch/cnt0021/gge6066/imerino/ELMER_MISOMIP/PRUEBA/Results/Ice1r1/ice1r10002.pvtu
350000 640000 0 80000 
OPEN NETCDF.....
NetCDF dims 242 x 42
Reading Netcdf

