Starting at Mon May  1 20:22:46 CEST 2017
Running on hosts: n3448
Running on 1 nodes.
Running on 24 processors.
Current working directory is /home/imerino/CM_MISOMIP/RUNS/PRUEBA
ELMER SOLVER (v 8.2) STARTED AT: 2017/05/01 20:22:47
ELMER SOLVER (v 8.2) STARTED AT: 2017/05/01 20:22:47
ELMER SOLVER (v 8.2) STARTED AT: 2017/05/01 20:22:47
ELMER SOLVER (v 8.2) STARTED AT: 2017/05/01 20:22:47
ELMER SOLVER (v 8.2) STARTED AT: 2017/05/01 20:22:47
ELMER SOLVER (v 8.2) STARTED AT: 2017/05/01 20:22:47
ELMER SOLVER (v 8.2) STARTED AT: 2017/05/01 20:22:47
ELMER SOLVER (v 8.2) STARTED AT: 2017/05/01 20:22:47
ELMER SOLVER (v 8.2) STARTED AT: 2017/05/01 20:22:47
ELMER SOLVER (v 8.2) STARTED AT: 2017/05/01 20:22:47
ELMER SOLVER (v 8.2) STARTED AT: 2017/05/01 20:22:47
ELMER SOLVER (v 8.2) STARTED AT: 2017/05/01 20:22:47
ELMER SOLVER (v 8.2) STARTED AT: 2017/05/01 20:22:47
ELMER SOLVER (v 8.2) STARTED AT: 2017/05/01 20:22:47
ELMER SOLVER (v 8.2) STARTED AT: 2017/05/01 20:22:47
ELMER SOLVER (v 8.2) STARTED AT: 2017/05/01 20:22:47
ELMER SOLVER (v 8.2) STARTED AT: 2017/05/01 20:22:47
ELMER SOLVER (v 8.2) STARTED AT: 2017/05/01 20:22:47
ELMER SOLVER (v 8.2) STARTED AT: 2017/05/01 20:22:47
ELMER SOLVER (v 8.2) STARTED AT: 2017/05/01 20:22:47
ELMER SOLVER (v 8.2) STARTED AT: 2017/05/01 20:22:47
ELMER SOLVER (v 8.2) STARTED AT: 2017/05/01 20:22:47
ELMER SOLVER (v 8.2) STARTED AT: 2017/05/01 20:22:47
ELMER SOLVER (v 8.2) STARTED AT: 2017/05/01 20:22:47
ParCommInit:  Initialize #PEs:           24
ParCommInit:  Initialize #PEs:           24
ParCommInit:  Initialize #PEs:           24
ParCommInit:  Initialize #PEs:           24
ParCommInit:  Initialize #PEs:           24
ParCommInit:  Initialize #PEs:           24
ParCommInit:  Initialize #PEs:           24
ParCommInit:  Initialize #PEs:           24
ParCommInit:  Initialize #PEs:           24
ParCommInit:  Initialize #PEs:           24
ParCommInit:  Initialize #PEs:           24
ParCommInit:  Initialize #PEs:           24
ParCommInit:  Initialize #PEs:           24
ParCommInit:  Initialize #PEs:           24
ParCommInit:  Initialize #PEs:           24
ParCommInit:  Initialize #PEs:           24
ParCommInit:  Initialize #PEs:           24
ParCommInit:  Initialize #PEs:           24
ParCommInit:  Initialize #PEs:           24
ParCommInit:  Initialize #PEs:           24
ParCommInit:  Initialize #PEs:           24
ParCommInit:  Initialize #PEs:           24
ParCommInit:  Initialize #PEs:           24
ParCommInit:  Initialize #PEs:           24
MAIN: 
MAIN: =============================================================
MAIN: ElmerSolver finite element software, Welcome!
MAIN: This program is free software licensed under (L)GPL
MAIN: Copyright 1st April 1995 - , CSC - IT Center for Science Ltd.
MAIN: Webpage http://www.csc.fi/elmer, Email elmeradm@csc.fi
MAIN: Version: 8.2 (Rev: 3e9803d, Compiled: 2017-04-28)
MAIN:  Running in parallel using 24 tasks.
MAIN:  MUMPS library linked in.
MAIN:  Intel MKL linked in.
MAIN: =============================================================
MAIN: 
MAIN: 
MAIN: -------------------------------------
MAIN: Reading Model: Ice1r3.sif
LoadInputFile: Scanning input file: Ice1r3.sif
LoadInputFile: Loading input file: Ice1r3.sif
Model Input:  Unlisted keyword: [sea level] in section: [constants]
Model Input:  Unlisted keyword: [water density] in section: [constants]
Model Input:  Unlisted keyword: [restart before initial conditions] in section: [simulation]
Model Input:  Unlisted keyword: [meltfactor] in section: [simulation]
Model Input:  Unlisted keyword: [melt] in section: [initial condition 1]
Model Input:  Unlisted keyword: [top surface accumulation] in section: [body force 1]
Model Input:  Unlisted keyword: [water pressure] in section: [body force 1]
Loading user function library: [./Executables/USF_WaterPressure]...[WaterPressure]
Model Input:  Unlisted keyword: [ssastar integrated viscosity] in section: [material 1]
Model Input:  Unlisted keyword: [ssa mean viscosity] in section: [material 1]
Model Input:  Unlisted keyword: [ssa mean density] in section: [material 1]
Model Input:  Unlisted keyword: [ssa critical thickness] in section: [material 1]
Model Input:  Unlisted keyword: [ssa friction law] in section: [material 1]
Model Input:  Unlisted keyword: [ssa friction exponent] in section: [material 1]
Model Input:  Unlisted keyword: [ssa friction parameter] in section: [material 1]
Model Input:  Unlisted keyword: [ssa friction linear velocity] in section: [material 1]
Model Input:  Unlisted keyword: [ssa friction post-peak] in section: [material 1]
Model Input:  Unlisted keyword: [ssa friction maximum value] in section: [material 1]
Model Input:  Unlisted keyword: [min h] in section: [material 1]
Model Input:  Unlisted keyword: [nonlinear system newton max divergent iterations] in section: [solver 3]
Model Input:  Unlisted keyword: [sub-element gl parameterization] in section: [solver 3]
Model Input:  Unlisted keyword: [gl integration points number] in section: [solver 3]
Model Input:  Unlisted keyword: [solve ssa star] in section: [solver 3]
Model Input:  Unlisted keyword: [ssa star internal viscosity integration] in section: [solver 3]
Model Input:  Unlisted keyword: [ssa star integrations levels] in section: [solver 3]
Model Input:  Unlisted keyword: [ssastar integration levels ratio] in section: [solver 3]
Model Input:  Unlisted keyword: [compute dhdt] in section: [solver 4]
Model Input:  Unlisted keyword: [draft file] in section: [solver 7]
Model Input:  Unlisted keyword: [melt rates file] in section: [solver 7]
Model Input:  Unlisted keyword: [ssavelocity 2] in section: [boundary condition 1]
Model Input:  Unlisted keyword: [calving front] in section: [boundary condition 2]
Model Input:  Unlisted keyword: [ssavelocity 2] in section: [boundary condition 3]
Model Input:  Unlisted keyword: [ssavelocity 1] in section: [boundary condition 4]
Model Input:  Unlisted keyword: [ssavelocity 2] in section: [boundary condition 4]
WARNING:: CheckTimer: Requesting time from non-existing timer: LoadMesh
WARNING:: CheckTimer: Requesting time from non-existing timer: MeshStabParams
WARNING:: CheckLinearSolverOptions: Only MUMPS and CPardiso direct solver interface implemented in parallel, trying MUMPS!
WARNING:: CheckTimer: Requesting time from non-existing timer: LoadMesh
WARNING:: CheckTimer: Requesting time from non-existing timer: MeshStabParams
WARNING:: CheckTimer: Requesting time from non-existing timer: LoadMesh
WARNING:: CheckLinearSolverOptions: Only MUMPS and CPardiso direct solver interface implemented in parallel, trying MUMPS!
WARNING:: CheckTimer: Requesting time from non-existing timer: MeshStabParams
WARNING:: CheckLinearSolverOptions: Only MUMPS and CPardiso direct solver interface implemented in parallel, trying MUMPS!
WARNING:: CheckLinearSolverOptions: Only MUMPS and CPardiso direct solver interface implemented in parallel, trying MUMPS!
WARNING:: CheckLinearSolverOptions: Only MUMPS and CPardiso direct solver interface implemented in parallel, trying MUMPS!
WARNING:: CheckLinearSolverOptions: Only MUMPS and CPardiso direct solver interface implemented in parallel, trying MUMPS!
WARNING:: CheckTimer: Requesting time from non-existing timer: LoadMesh
WARNING:: CheckTimer: Requesting time from non-existing timer: MeshStabParams
WARNING:: CheckTimer: Requesting time from non-existing timer: LoadMesh
WARNING:: CheckTimer: Requesting time from non-existing timer: LoadMesh
WARNING:: CheckTimer: Requesting time from non-existing timer: MeshStabParams
WARNING:: CheckTimer: Requesting time from non-existing timer: MeshStabParams
WARNING:: CheckTimer: Requesting time from non-existing timer: LoadMesh
WARNING:: CheckTimer: Requesting time from non-existing timer: MeshStabParams
WARNING:: CheckLinearSolverOptions: Only MUMPS and CPardiso direct solver interface implemented in parallel, trying MUMPS!
WARNING:: CheckLinearSolverOptions: Only MUMPS and CPardiso direct solver interface implemented in parallel, trying MUMPS!
WARNING:: CheckTimer: Requesting time from non-existing timer: LoadMesh
WARNING:: CheckLinearSolverOptions: Only MUMPS and CPardiso direct solver interface implemented in parallel, trying MUMPS!
WARNING:: CheckLinearSolverOptions: Only MUMPS and CPardiso direct solver interface implemented in parallel, trying MUMPS!
WARNING:: CheckTimer: Requesting time from non-existing timer: MeshStabParams
WARNING:: CheckTimer: Requesting time from non-existing timer: LoadMesh
WARNING:: CheckLinearSolverOptions: Only MUMPS and CPardiso direct solver interface implemented in parallel, trying MUMPS!
WARNING:: CheckTimer: Requesting time from non-existing timer: MeshStabParams
WARNING:: CheckLinearSolverOptions: Only MUMPS and CPardiso direct solver interface implemented in parallel, trying MUMPS!
WARNING:: CheckTimer: Requesting time from non-existing timer: LoadMesh
WARNING:: CheckTimer: Requesting time from non-existing timer: LoadMesh
WARNING:: CheckLinearSolverOptions: Only MUMPS and CPardiso direct solver interface implemented in parallel, trying MUMPS!
WARNING:: CheckTimer: Requesting time from non-existing timer: MeshStabParams
WARNING:: CheckTimer: Requesting time from non-existing timer: MeshStabParams
WARNING:: CheckLinearSolverOptions: Only MUMPS and CPardiso direct solver interface implemented in parallel, trying MUMPS!
WARNING:: CheckLinearSolverOptions: Only MUMPS and CPardiso direct solver interface implemented in parallel, trying MUMPS!
WARNING:: CheckLinearSolverOptions: Only MUMPS and CPardiso direct solver interface implemented in parallel, trying MUMPS!
WARNING:: CheckTimer: Requesting time from non-existing timer: LoadMesh
WARNING:: CheckTimer: Requesting time from non-existing timer: MeshStabParams
WARNING:: CheckLinearSolverOptions: Only MUMPS and CPardiso direct solver interface implemented in parallel, trying MUMPS!
WARNING:: CheckLinearSolverOptions: Only MUMPS and CPardiso direct solver interface implemented in parallel, trying MUMPS!
WARNING:: CheckLinearSolverOptions: Only MUMPS and CPardiso direct solver interface implemented in parallel, trying MUMPS!
WARNING:: CheckTimer: Requesting time from non-existing timer: LoadMesh
WARNING:: CheckTimer: Requesting time from non-existing timer: LoadMesh
WARNING:: CheckTimer: Requesting time from non-existing timer: MeshStabParams
WARNING:: CheckTimer: Requesting time from non-existing timer: MeshStabParams
WARNING:: CheckLinearSolverOptions: Only MUMPS and CPardiso direct solver interface implemented in parallel, trying MUMPS!
WARNING:: CheckTimer: Requesting time from non-existing timer: LoadMesh
WARNING:: CheckTimer: Requesting time from non-existing timer: MeshStabParams
WARNING:: CheckTimer: Requesting time from non-existing timer: LoadMesh
WARNING:: CheckLinearSolverOptions: Only MUMPS and CPardiso direct solver interface implemented in parallel, trying MUMPS!
WARNING:: CheckLinearSolverOptions: Only MUMPS and CPardiso direct solver interface implemented in parallel, trying MUMPS!
WARNING:: CheckTimer: Requesting time from non-existing timer: MeshStabParams
WARNING:: CheckTimer: Requesting time from non-existing timer: LoadMesh
WARNING:: CheckLinearSolverOptions: Only MUMPS and CPardiso direct solver interface implemented in parallel, trying MUMPS!
WARNING:: CheckTimer: Requesting time from non-existing timer: MeshStabParams
WARNING:: CheckLinearSolverOptions: Only MUMPS and CPardiso direct solver interface implemented in parallel, trying MUMPS!
WARNING:: CheckLinearSolverOptions: Only MUMPS and CPardiso direct solver interface implemented in parallel, trying MUMPS!
WARNING:: CheckTimer: Requesting time from non-existing timer: LoadMesh
WARNING:: CheckTimer: Requesting time from non-existing timer: LoadMesh
WARNING:: CheckLinearSolverOptions: Only MUMPS and CPardiso direct solver interface implemented in parallel, trying MUMPS!
WARNING:: CheckTimer: Requesting time from non-existing timer: MeshStabParams
WARNING:: CheckTimer: Requesting time from non-existing timer: MeshStabParams
WARNING:: CheckLinearSolverOptions: Only MUMPS and CPardiso direct solver interface implemented in parallel, trying MUMPS!
WARNING:: CheckLinearSolverOptions: Only MUMPS and CPardiso direct solver interface implemented in parallel, trying MUMPS!
WARNING:: CheckLinearSolverOptions: Only MUMPS and CPardiso direct solver interface implemented in parallel, trying MUMPS!
WARNING:: CheckLinearSolverOptions: Only MUMPS and CPardiso direct solver interface implemented in parallel, trying MUMPS!
WARNING:: CheckTimer: Requesting time from non-existing timer: LoadMesh
WARNING:: CheckTimer: Requesting time from non-existing timer: MeshStabParams
WARNING:: CheckLinearSolverOptions: Only MUMPS and CPardiso direct solver interface implemented in parallel, trying MUMPS!
WARNING:: CheckLinearSolverOptions: Only MUMPS and CPardiso direct solver interface implemented in parallel, trying MUMPS!
WARNING:: CheckTimer: Requesting time from non-existing timer: LoadMesh
WARNING:: CheckTimer: Requesting time from non-existing timer: MeshStabParams
WARNING:: CheckLinearSolverOptions: Only MUMPS and CPardiso direct solver interface implemented in parallel, trying MUMPS!
WARNING:: CheckLinearSolverOptions: Only MUMPS and CPardiso direct solver interface implemented in parallel, trying MUMPS!
WARNING:: CheckLinearSolverOptions: Only MUMPS and CPardiso direct solver interface implemented in parallel, trying MUMPS!
WARNING:: CheckLinearSolverOptions: Only MUMPS and CPardiso direct solver interface implemented in parallel, trying MUMPS!
WARNING:: CheckLinearSolverOptions: Only MUMPS and CPardiso direct solver interface implemented in parallel, trying MUMPS!
WARNING:: CheckLinearSolverOptions: Only MUMPS and CPardiso direct solver interface implemented in parallel, trying MUMPS!
WARNING:: CheckLinearSolverOptions: Only MUMPS and CPardiso direct solver interface implemented in parallel, trying MUMPS!
WARNING:: CheckLinearSolverOptions: Only MUMPS and CPardiso direct solver interface implemented in parallel, trying MUMPS!
WARNING:: CheckLinearSolverOptions: Only MUMPS and CPardiso direct solver interface implemented in parallel, trying MUMPS!
WARNING:: CheckLinearSolverOptions: Only MUMPS and CPardiso direct solver interface implemented in parallel, trying MUMPS!
WARNING:: CheckTimer: Requesting time from non-existing timer: LoadMesh
WARNING:: CheckTimer: Requesting time from non-existing timer: MeshStabParams
WARNING:: CheckTimer: Requesting time from non-existing timer: LoadMesh
WARNING:: CheckTimer: Requesting time from non-existing timer: MeshStabParams
WARNING:: CheckLinearSolverOptions: Only MUMPS and CPardiso direct solver interface implemented in parallel, trying MUMPS!
WARNING:: CheckLinearSolverOptions: Only MUMPS and CPardiso direct solver interface implemented in parallel, trying MUMPS!
WARNING:: CheckLinearSolverOptions: Only MUMPS and CPardiso direct solver interface implemented in parallel, trying MUMPS!
WARNING:: CheckLinearSolverOptions: Only MUMPS and CPardiso direct solver interface implemented in parallel, trying MUMPS!
WARNING:: CheckTimer: Requesting time from non-existing timer: LoadMesh
WARNING:: CheckTimer: Requesting time from non-existing timer: MeshStabParams
WARNING:: CheckLinearSolverOptions: Only MUMPS and CPardiso direct solver interface implemented in parallel, trying MUMPS!
WARNING:: CheckLinearSolverOptions: Only MUMPS and CPardiso direct solver interface implemented in parallel, trying MUMPS!
MAIN: 
MAIN: -------------------------------------
MAIN:  Time: 1/6   4203.79999999939
MAIN: -------------------------------------
MAIN: 
EffectivePressure: Constant >Gravity< not found. Setting to -9.746289e15
USF_WaterPressure: Constant >Gravity< not found. Setting to -9.746289e15
SSASolver-SSABasalSolver: Memory allocation done.
ComputeChange: NS (ITER=1) (NRM,RELC): (  224.10899      2.0000000     ) :: ssa
ComputeChange: NS (ITER=2) (NRM,RELC): (  224.15860     0.22132541E-03 ) :: ssa
ComputeChange: NS (ITER=3) (NRM,RELC): (  224.37311     0.95649550E-03 ) :: ssa
ComputeChange: NS (ITER=4) (NRM,RELC): (  224.37417     0.47388225E-05 ) :: ssa
ComputeChange: NS (ITER=5) (NRM,RELC): (  224.37417     0.76660553E-10 ) :: ssa
ComputeChange: NS (ITER=2) (NRM,RELC): (  820.35198      2.0000000     ) :: thickness
ComputeChange: NS (ITER=4) (NRM,RELC): (  820.35198      0.0000000     ) :: thickness
NUMERICAL ERROR:: SolveEquations: Coupled system did not converge
NUMERICAL ERROR:: SolveEquations: Coupled system did not converge
NUMERICAL ERROR:: SolveEquations: Coupled system did not converge
NUMERICAL ERROR:: SolveEquations: Coupled system did not converge
NUMERICAL ERROR:: SolveEquations: Coupled system did not converge
NUMERICAL ERROR:: SolveEquations: Coupled system did not converge
NUMERICAL ERROR:: SolveEquations: Coupled system did not converge
NUMERICAL ERROR:: SolveEquations: Coupled system did not converge
NUMERICAL ERROR:: SolveEquations: Coupled system did not converge
NUMERICAL ERROR:: SolveEquations: Coupled system did not converge
NUMERICAL ERROR:: SolveEquations: Coupled system did not converge
NUMERICAL ERROR:: SolveEquations: Coupled system did not converge
NUMERICAL ERROR:: SolveEquations: Coupled system did not converge
NUMERICAL ERROR:: SolveEquations: Coupled system did not converge
NUMERICAL ERROR:: SolveEquations: Coupled system did not converge
NUMERICAL ERROR:: SolveEquations: Coupled system did not converge
NUMERICAL ERROR:: SolveEquations: Coupled system did not converge
NUMERICAL ERROR:: SolveEquations: Coupled system did not converge
NUMERICAL ERROR:: SolveEquations: Coupled system did not converge
NUMERICAL ERROR:: SolveEquations: Coupled system did not converge
NUMERICAL ERROR:: SolveEquations: Coupled system did not converge
NUMERICAL ERROR:: SolveEquations: Coupled system did not converge
NUMERICAL ERROR:: SolveEquations: Coupled system did not converge
NUMERICAL ERROR:: SolveEquations: Coupled system did not converge
MAIN: 
MAIN: -------------------------------------
MAIN:  Time: 2/6   4203.89999999939
MAIN: Estimated time left:  1.3 minutes
MAIN: -------------------------------------
MAIN: 
EffectivePressure: Constant >Gravity< not found. Setting to -9.746289e15
ComputeChange: NS (ITER=1) (NRM,RELC): (  224.01336     0.16093646E-02 ) :: ssa
ComputeChange: NS (ITER=2) (NRM,RELC): (  223.83541     0.79471839E-03 ) :: ssa
ComputeChange: NS (ITER=3) (NRM,RELC): (  223.59223     0.10870164E-02 ) :: ssa
ComputeChange: NS (ITER=4) (NRM,RELC): (  223.59524     0.13481823E-04 ) :: ssa
ComputeChange: NS (ITER=5) (NRM,RELC): (  223.59524     0.59749959E-09 ) :: ssa
ComputeChange: NS (ITER=2) (NRM,RELC): (  819.97768     0.45636564E-03 ) :: thickness
ComputeChange: NS (ITER=4) (NRM,RELC): (  819.97768      0.0000000     ) :: thickness
NUMERICAL ERROR:: SolveEquations: Coupled system did not converge
MAIN: 
MAIN: -------------------------------------
NUMERICAL ERROR:: SolveEquations: Coupled system did not converge
NUMERICAL ERROR:: SolveEquations: Coupled system did not converge
NUMERICAL ERROR:: SolveEquations: Coupled system did not converge
NUMERICAL ERROR:: SolveEquations: Coupled system did not converge
NUMERICAL ERROR:: SolveEquations: Coupled system did not converge
NUMERICAL ERROR:: SolveEquations: Coupled system did not converge
NUMERICAL ERROR:: SolveEquations: Coupled system did not converge
NUMERICAL ERROR:: SolveEquations: Coupled system did not converge
NUMERICAL ERROR:: SolveEquations: Coupled system did not converge
NUMERICAL ERROR:: SolveEquations: Coupled system did not converge
NUMERICAL ERROR:: SolveEquations: Coupled system did not converge
NUMERICAL ERROR:: SolveEquations: Coupled system did not converge
NUMERICAL ERROR:: SolveEquations: Coupled system did not converge
NUMERICAL ERROR:: SolveEquations: Coupled system did not converge
NUMERICAL ERROR:: SolveEquations: Coupled system did not converge
NUMERICAL ERROR:: SolveEquations: Coupled system did not converge
NUMERICAL ERROR:: SolveEquations: Coupled system did not converge
NUMERICAL ERROR:: SolveEquations: Coupled system did not converge
NUMERICAL ERROR:: SolveEquations: Coupled system did not converge
NUMERICAL ERROR:: SolveEquations: Coupled system did not converge
NUMERICAL ERROR:: SolveEquations: Coupled system did not converge
NUMERICAL ERROR:: SolveEquations: Coupled system did not converge
NUMERICAL ERROR:: SolveEquations: Coupled system did not converge
MAIN:  Time: 3/6   4203.99999999939
MAIN: Estimated time left: 34.5 seconds
MAIN: -------------------------------------
MAIN: 
EffectivePressure: Constant >Gravity< not found. Setting to -9.746289e15
ComputeChange: NS (ITER=1) (NRM,RELC): (  223.23792     0.15993302E-02 ) :: ssa
ComputeChange: NS (ITER=2) (NRM,RELC): (  223.07082     0.74881402E-03 ) :: ssa
ComputeChange: NS (ITER=3) (NRM,RELC): (  222.86012     0.94500632E-03 ) :: ssa
ComputeChange: NS (ITER=4) (NRM,RELC): (  222.86319     0.13778362E-04 ) :: ssa
ComputeChange: NS (ITER=5) (NRM,RELC): (  222.86319     0.63383522E-09 ) :: ssa
ComputeChange: NS (ITER=2) (NRM,RELC): (  819.60643     0.45286313E-03 ) :: thickness
ComputeChange: NS (ITER=4) (NRM,RELC): (  819.60643      0.0000000     ) :: thickness
NUMERICAL ERROR:: SolveEquations: Coupled system did not converge
MAIN: 
MAIN: -------------------------------------
NUMERICAL ERROR:: SolveEquations: Coupled system did not converge
NUMERICAL ERROR:: SolveEquations: Coupled system did not converge
NUMERICAL ERROR:: SolveEquations: Coupled system did not converge
NUMERICAL ERROR:: SolveEquations: Coupled system did not converge
NUMERICAL ERROR:: SolveEquations: Coupled system did not converge
NUMERICAL ERROR:: SolveEquations: Coupled system did not converge
NUMERICAL ERROR:: SolveEquations: Coupled system did not converge
NUMERICAL ERROR:: SolveEquations: Coupled system did not converge
NUMERICAL ERROR:: SolveEquations: Coupled system did not converge
NUMERICAL ERROR:: SolveEquations: Coupled system did not converge
NUMERICAL ERROR:: SolveEquations: Coupled system did not converge
NUMERICAL ERROR:: SolveEquations: Coupled system did not converge
NUMERICAL ERROR:: SolveEquations: Coupled system did not converge
NUMERICAL ERROR:: SolveEquations: Coupled system did not converge
NUMERICAL ERROR:: SolveEquations: Coupled system did not converge
NUMERICAL ERROR:: SolveEquations: Coupled system did not converge
NUMERICAL ERROR:: SolveEquations: Coupled system did not converge
NUMERICAL ERROR:: SolveEquations: Coupled system did not converge
NUMERICAL ERROR:: SolveEquations: Coupled system did not converge
NUMERICAL ERROR:: SolveEquations: Coupled system did not converge
NUMERICAL ERROR:: SolveEquations: Coupled system did not converge
NUMERICAL ERROR:: SolveEquations: Coupled system did not converge
NUMERICAL ERROR:: SolveEquations: Coupled system did not converge
MAIN:  Time: 4/6   4204.09999999939
MAIN: Estimated time left: 19.4 seconds
MAIN: -------------------------------------
MAIN: 
EffectivePressure: Constant >Gravity< not found. Setting to -9.746289e15
ComputeChange: NS (ITER=1) (NRM,RELC): (  222.51524     0.15624774E-02 ) :: ssa
ComputeChange: NS (ITER=2) (NRM,RELC): (  222.36220     0.68802698E-03 ) :: ssa
ComputeChange: NS (ITER=3) (NRM,RELC): (  222.19134     0.76868215E-03 ) :: ssa
ComputeChange: NS (ITER=4) (NRM,RELC): (  222.19442     0.13866464E-04 ) :: ssa
ComputeChange: NS (ITER=5) (NRM,RELC): (  222.19442     0.65896429E-09 ) :: ssa
ComputeChange: NS (ITER=2) (NRM,RELC): (  819.23818     0.44939476E-03 ) :: thickness
ComputeChange: NS (ITER=4) (NRM,RELC): (  819.23818      0.0000000     ) :: thickness
NUMERICAL ERROR:: SolveEquations: Coupled system did not converge
MAIN: 
MAIN: -------------------------------------
MAIN:  Time: 5/6   4204.19999999939
NUMERICAL ERROR:: SolveEquations: Coupled system did not converge
NUMERICAL ERROR:: SolveEquations: Coupled system did not converge
NUMERICAL ERROR:: SolveEquations: Coupled system did not converge
NUMERICAL ERROR:: SolveEquations: Coupled system did not converge
NUMERICAL ERROR:: SolveEquations: Coupled system did not converge
NUMERICAL ERROR:: SolveEquations: Coupled system did not converge
NUMERICAL ERROR:: SolveEquations: Coupled system did not converge
NUMERICAL ERROR:: SolveEquations: Coupled system did not converge
NUMERICAL ERROR:: SolveEquations: Coupled system did not converge
NUMERICAL ERROR:: SolveEquations: Coupled system did not converge
NUMERICAL ERROR:: SolveEquations: Coupled system did not converge
NUMERICAL ERROR:: SolveEquations: Coupled system did not converge
NUMERICAL ERROR:: SolveEquations: Coupled system did not converge
NUMERICAL ERROR:: SolveEquations: Coupled system did not converge
NUMERICAL ERROR:: SolveEquations: Coupled system did not converge
NUMERICAL ERROR:: SolveEquations: Coupled system did not converge
NUMERICAL ERROR:: SolveEquations: Coupled system did not converge
NUMERICAL ERROR:: SolveEquations: Coupled system did not converge
NUMERICAL ERROR:: SolveEquations: Coupled system did not converge
NUMERICAL ERROR:: SolveEquations: Coupled system did not converge
NUMERICAL ERROR:: SolveEquations: Coupled system did not converge
NUMERICAL ERROR:: SolveEquations: Coupled system did not converge
NUMERICAL ERROR:: SolveEquations: Coupled system did not converge
MAIN: Estimated time left: 12.5 seconds
MAIN: -------------------------------------
MAIN: 
EffectivePressure: Constant >Gravity< not found. Setting to -9.746289e15
ComputeChange: NS (ITER=1) (NRM,RELC): (  221.86708     0.14742818E-02 ) :: ssa
ComputeChange: NS (ITER=2) (NRM,RELC): (  221.73498     0.59561550E-03 ) :: ssa
ComputeChange: NS (ITER=3) (NRM,RELC): (  221.61681     0.53306179E-03 ) :: ssa
ComputeChange: NS (ITER=4) (NRM,RELC): (  221.61987     0.13808912E-04 ) :: ssa
ComputeChange: NS (ITER=5) (NRM,RELC): (  221.61987     0.67120416E-09 ) :: ssa
ComputeChange: NS (ITER=2) (NRM,RELC): (  818.87291     0.44596891E-03 ) :: thickness
ComputeChange: NS (ITER=4) (NRM,RELC): (  818.87291      0.0000000     ) :: thickness
NUMERICAL ERROR:: SolveEquations: Coupled system did not converge
MAIN: 
MAIN: -------------------------------------
MAIN:  Time: 6/6   4204.29999999939
NUMERICAL ERROR:: SolveEquations: Coupled system did not converge
NUMERICAL ERROR:: SolveEquations: Coupled system did not converge
NUMERICAL ERROR:: SolveEquations: Coupled system did not converge
NUMERICAL ERROR:: SolveEquations: Coupled system did not converge
NUMERICAL ERROR:: SolveEquations: Coupled system did not converge
NUMERICAL ERROR:: SolveEquations: Coupled system did not converge
NUMERICAL ERROR:: SolveEquations: Coupled system did not converge
NUMERICAL ERROR:: SolveEquations: Coupled system did not converge
NUMERICAL ERROR:: SolveEquations: Coupled system did not converge
NUMERICAL ERROR:: SolveEquations: Coupled system did not converge
NUMERICAL ERROR:: SolveEquations: Coupled system did not converge
NUMERICAL ERROR:: SolveEquations: Coupled system did not converge
NUMERICAL ERROR:: SolveEquations: Coupled system did not converge
NUMERICAL ERROR:: SolveEquations: Coupled system did not converge
NUMERICAL ERROR:: SolveEquations: Coupled system did not converge
NUMERICAL ERROR:: SolveEquations: Coupled system did not converge
NUMERICAL ERROR:: SolveEquations: Coupled system did not converge
NUMERICAL ERROR:: SolveEquations: Coupled system did not converge
NUMERICAL ERROR:: SolveEquations: Coupled system did not converge
NUMERICAL ERROR:: SolveEquations: Coupled system did not converge
NUMERICAL ERROR:: SolveEquations: Coupled system did not converge
NUMERICAL ERROR:: SolveEquations: Coupled system did not converge
NUMERICAL ERROR:: SolveEquations: Coupled system did not converge
MAIN: Estimated time left:  5.6 seconds
MAIN: -------------------------------------
MAIN: 
EffectivePressure: Constant >Gravity< not found. Setting to -9.746289e15
ComputeChange: NS (ITER=1) (NRM,RELC): (  221.29996     0.14445480E-02 ) :: ssa
ComputeChange: NS (ITER=2) (NRM,RELC): (  221.17903     0.54658650E-03 ) :: ssa
ComputeChange: NS (ITER=3) (NRM,RELC): (  221.08821     0.41070266E-03 ) :: ssa
ComputeChange: NS (ITER=4) (NRM,RELC): (  221.09128     0.13876015E-04 ) :: ssa
ComputeChange: NS (ITER=5) (NRM,RELC): (  221.09128     0.70645234E-09 ) :: ssa
ComputeChange: NS (ITER=2) (NRM,RELC): (  818.51058     0.44256977E-03 ) :: thickness
ComputeChange: NS (ITER=4) (NRM,RELC): (  818.51058      0.0000000     ) :: thickness
NUMERICAL ERROR:: SolveEquations: Coupled system did not converge
NUMERICAL ERROR:: SolveEquations: Coupled system did not converge
NUMERICAL ERROR:: SolveEquations: Coupled system did not converge
NUMERICAL ERROR:: SolveEquations: Coupled system did not converge
NUMERICAL ERROR:: SolveEquations: Coupled system did not converge
NUMERICAL ERROR:: SolveEquations: Coupled system did not converge
NUMERICAL ERROR:: SolveEquations: Coupled system did not converge
NUMERICAL ERROR:: SolveEquations: Coupled system did not converge
NUMERICAL ERROR:: SolveEquations: Coupled system did not converge
NUMERICAL ERROR:: SolveEquations: Coupled system did not converge
NUMERICAL ERROR:: SolveEquations: Coupled system did not converge
NUMERICAL ERROR:: SolveEquations: Coupled system did not converge
NUMERICAL ERROR:: SolveEquations: Coupled system did not converge
NUMERICAL ERROR:: SolveEquations: Coupled system did not converge
NUMERICAL ERROR:: SolveEquations: Coupled system did not converge
NUMERICAL ERROR:: SolveEquations: Coupled system did not converge
NUMERICAL ERROR:: SolveEquations: Coupled system did not converge
NUMERICAL ERROR:: SolveEquations: Coupled system did not converge
NUMERICAL ERROR:: SolveEquations: Coupled system did not converge
NUMERICAL ERROR:: SolveEquations: Coupled system did not converge
NUMERICAL ERROR:: SolveEquations: Coupled system did not converge
NUMERICAL ERROR:: SolveEquations: Coupled system did not converge
NUMERICAL ERROR:: SolveEquations: Coupled system did not converge
NUMERICAL ERROR:: SolveEquations: Coupled system did not converge
ElmerSolver: *** Elmer Solver: ALL DONE ***
ElmerSolver: The end
SOLVER TOTAL TIME(CPU,REAL):        32.58       54.39
ELMER SOLVER FINISHED AT: 2017/05/01 20:23:42
0

hola
/scratch/cnt0021/gge6066/imerino/ELMER_MISOMIP/PRUEBA/Results/Ice1r3/ice1r30002.pvtu
args
Interpolating Elmer to NEMO grid
           
Elmer grid is found in; 
        /scratch/cnt0021/gge6066/imerino/ELMER_MISOMIP/PRUEBA/Results/Ice1r3/ice1r30002.pvtu
350000 640000 0 80000 
OPEN NETCDF.....
NetCDF dims 242 x 42
Reading Netcdf

