Starting at Fri Apr 28 11:26:14 CEST 2017
Running on hosts: n3278
Running on 1 nodes.
Running on 24 processors.
Current working directory is /home/imerino/CM_MISOMIP/RUNS/PRUEBA
ELMER SOLVER (v 8.2) STARTED AT: 2017/04/28 11:26:15
ELMER SOLVER (v 8.2) STARTED AT: 2017/04/28 11:26:15
ELMER SOLVER (v 8.2) STARTED AT: 2017/04/28 11:26:15
ELMER SOLVER (v 8.2) STARTED AT: 2017/04/28 11:26:15
ELMER SOLVER (v 8.2) STARTED AT: 2017/04/28 11:26:15
ELMER SOLVER (v 8.2) STARTED AT: 2017/04/28 11:26:15
ELMER SOLVER (v 8.2) STARTED AT: 2017/04/28 11:26:15
ELMER SOLVER (v 8.2) STARTED AT: 2017/04/28 11:26:15
ELMER SOLVER (v 8.2) STARTED AT: 2017/04/28 11:26:15
ELMER SOLVER (v 8.2) STARTED AT: 2017/04/28 11:26:15
ELMER SOLVER (v 8.2) STARTED AT: 2017/04/28 11:26:15
ELMER SOLVER (v 8.2) STARTED AT: 2017/04/28 11:26:15
ELMER SOLVER (v 8.2) STARTED AT: 2017/04/28 11:26:15
ELMER SOLVER (v 8.2) STARTED AT: 2017/04/28 11:26:15
ELMER SOLVER (v 8.2) STARTED AT: 2017/04/28 11:26:15
ELMER SOLVER (v 8.2) STARTED AT: 2017/04/28 11:26:15
ELMER SOLVER (v 8.2) STARTED AT: 2017/04/28 11:26:15
ELMER SOLVER (v 8.2) STARTED AT: 2017/04/28 11:26:15
ELMER SOLVER (v 8.2) STARTED AT: 2017/04/28 11:26:15
ELMER SOLVER (v 8.2) STARTED AT: 2017/04/28 11:26:15
ELMER SOLVER (v 8.2) STARTED AT: 2017/04/28 11:26:15
ELMER SOLVER (v 8.2) STARTED AT: 2017/04/28 11:26:15
ELMER SOLVER (v 8.2) STARTED AT: 2017/04/28 11:26:15
ELMER SOLVER (v 8.2) STARTED AT: 2017/04/28 11:26:15
ParCommInit:  Initialize #PEs:           24
ParCommInit:  Initialize #PEs:           24
ParCommInit:  Initialize #PEs:           24
ParCommInit:  Initialize #PEs:           24
ParCommInit:  Initialize #PEs:           24
ParCommInit:  Initialize #PEs:           24
ParCommInit:  Initialize #PEs:           24
ParCommInit:  Initialize #PEs:           24
ParCommInit:  Initialize #PEs:           24
ParCommInit:  Initialize #PEs:           24
ParCommInit:  Initialize #PEs:           24
ParCommInit:  Initialize #PEs:           24
ParCommInit:  Initialize #PEs:           24
ParCommInit:  Initialize #PEs:           24
ParCommInit:  Initialize #PEs:           24
ParCommInit:  Initialize #PEs:           24
ParCommInit:  Initialize #PEs:           24
ParCommInit:  Initialize #PEs:           24
ParCommInit:  Initialize #PEs:           24
ParCommInit:  Initialize #PEs:           24
ParCommInit:  Initialize #PEs:           24
ParCommInit:  Initialize #PEs:           24
ParCommInit:  Initialize #PEs:           24
ParCommInit:  Initialize #PEs:           24
MAIN: 
MAIN: =============================================================
MAIN: ElmerSolver finite element software, Welcome!
MAIN: This program is free software licensed under (L)GPL
MAIN: Copyright 1st April 1995 - , CSC - IT Center for Science Ltd.
MAIN: Webpage http://www.csc.fi/elmer, Email elmeradm@csc.fi
MAIN: Version: 8.2 (Rev: 3e9803d, Compiled: 2017-04-28)
MAIN:  Running in parallel using 24 tasks.
MAIN: =============================================================
MAIN: 
MAIN: 
MAIN: -------------------------------------
MAIN: Reading Model: Run0.sif
LoadInputFile: Scanning input file: Run0.sif
LoadInputFile: Loading input file: Run0.sif
Model Input:  Unlisted keyword: [sea level] in section: [constants]
Model Input:  Unlisted keyword: [water density] in section: [constants]
Model Input:  Unlisted keyword: [restart before initial conditions] in section: [simulation]
Model Input:  Unlisted keyword: [melt] in section: [initial condition 1]
Model Input:  Unlisted keyword: [ssa mean density] in section: [material 1]
Model Input:  Unlisted keyword: [min h] in section: [material 1]
Model Input:  Unlisted keyword: [ssavelocity 2] in section: [boundary condition 1]
Model Input:  Unlisted keyword: [calving front] in section: [boundary condition 2]
Model Input:  Unlisted keyword: [ssavelocity 2] in section: [boundary condition 3]
Model Input:  Unlisted keyword: [ssavelocity 1] in section: [boundary condition 4]
Model Input:  Unlisted keyword: [ssavelocity 2] in section: [boundary condition 4]
0

hola
/scratch/cnt0021/gge6066/imerino/ELMER_MISOMIP/PRUEBA/Results/Run0/run00001.pvtu
args
Interpolating Elmer to NEMO grid
           
Elmer grid is found in; 
        /scratch/cnt0021/gge6066/imerino/ELMER_MISOMIP/PRUEBA/Results/Run0/run00001.pvtu
350000 640000 0 80000 
