Starting at Mon May  1 10:13:07 CEST 2017
Running on hosts: n3393
Running on 1 nodes.
Running on 24 processors.
Current working directory is /home/imerino/CM_MISOMIP/RUNS/PRUEBA
ELMER SOLVER (v 8.2) STARTED AT: 2017/05/01 10:13:08
ELMER SOLVER (v 8.2) STARTED AT: 2017/05/01 10:13:08
ELMER SOLVER (v 8.2) STARTED AT: 2017/05/01 10:13:08
ELMER SOLVER (v 8.2) STARTED AT: 2017/05/01 10:13:08
ELMER SOLVER (v 8.2) STARTED AT: 2017/05/01 10:13:08
ELMER SOLVER (v 8.2) STARTED AT: 2017/05/01 10:13:08
ELMER SOLVER (v 8.2) STARTED AT: 2017/05/01 10:13:08
ELMER SOLVER (v 8.2) STARTED AT: 2017/05/01 10:13:08
ELMER SOLVER (v 8.2) STARTED AT: 2017/05/01 10:13:08
ELMER SOLVER (v 8.2) STARTED AT: 2017/05/01 10:13:08
ELMER SOLVER (v 8.2) STARTED AT: 2017/05/01 10:13:08
ELMER SOLVER (v 8.2) STARTED AT: 2017/05/01 10:13:08
ELMER SOLVER (v 8.2) STARTED AT: 2017/05/01 10:13:08
ELMER SOLVER (v 8.2) STARTED AT: 2017/05/01 10:13:08
ELMER SOLVER (v 8.2) STARTED AT: 2017/05/01 10:13:08
ELMER SOLVER (v 8.2) STARTED AT: 2017/05/01 10:13:08
ELMER SOLVER (v 8.2) STARTED AT: 2017/05/01 10:13:08
ELMER SOLVER (v 8.2) STARTED AT: 2017/05/01 10:13:08
ELMER SOLVER (v 8.2) STARTED AT: 2017/05/01 10:13:08
ELMER SOLVER (v 8.2) STARTED AT: 2017/05/01 10:13:08
ELMER SOLVER (v 8.2) STARTED AT: 2017/05/01 10:13:08
ELMER SOLVER (v 8.2) STARTED AT: 2017/05/01 10:13:08
ELMER SOLVER (v 8.2) STARTED AT: 2017/05/01 10:13:08
ELMER SOLVER (v 8.2) STARTED AT: 2017/05/01 10:13:08
ParCommInit:  Initialize #PEs:           24
ParCommInit:  Initialize #PEs:           24
ParCommInit:  Initialize #PEs:           24
ParCommInit:  Initialize #PEs:           24
ParCommInit:  Initialize #PEs:           24
ParCommInit:  Initialize #PEs:           24
ParCommInit:  Initialize #PEs:           24
ParCommInit:  Initialize #PEs:           24
ParCommInit:  Initialize #PEs:           24
ParCommInit:  Initialize #PEs:           24
ParCommInit:  Initialize #PEs:           24
ParCommInit:  Initialize #PEs:           24
ParCommInit:  Initialize #PEs:           24
ParCommInit:  Initialize #PEs:           24
ParCommInit:  Initialize #PEs:           24
ParCommInit:  Initialize #PEs:           24
ParCommInit:  Initialize #PEs:           24
ParCommInit:  Initialize #PEs:           24
ParCommInit:  Initialize #PEs:           24
ParCommInit:  Initialize #PEs:           24
ParCommInit:  Initialize #PEs:           24
ParCommInit:  Initialize #PEs:           24
ParCommInit:  Initialize #PEs:           24
ParCommInit:  Initialize #PEs:           24
MAIN: 
MAIN: =============================================================
MAIN: ElmerSolver finite element software, Welcome!
MAIN: This program is free software licensed under (L)GPL
MAIN: Copyright 1st April 1995 - , CSC - IT Center for Science Ltd.
MAIN: Webpage http://www.csc.fi/elmer, Email elmeradm@csc.fi
MAIN: Version: 8.2 (Rev: 3e9803d, Compiled: 2017-04-28)
MAIN:  Running in parallel using 24 tasks.
MAIN:  MUMPS library linked in.
MAIN:  Intel MKL linked in.
MAIN: =============================================================
MAIN: 
MAIN: 
MAIN: -------------------------------------
MAIN: Reading Model: Ice1r3.sif
LoadInputFile: Scanning input file: Ice1r3.sif
LoadInputFile: Loading input file: Ice1r3.sif
Model Input:  Unlisted keyword: [sea level] in section: [constants]
Model Input:  Unlisted keyword: [water density] in section: [constants]
Model Input:  Unlisted keyword: [restart before initial conditions] in section: [simulation]
Model Input:  Unlisted keyword: [meltfactor] in section: [simulation]
Model Input:  Unlisted keyword: [melt] in section: [initial condition 1]
Model Input:  Unlisted keyword: [top surface accumulation] in section: [body force 1]
Model Input:  Unlisted keyword: [water pressure] in section: [body force 1]
Loading user function library: [./Executables/USF_WaterPressure]...[WaterPressure]
Model Input:  Unlisted keyword: [ssastar integrated viscosity] in section: [material 1]
Model Input:  Unlisted keyword: [ssa mean viscosity] in section: [material 1]
Model Input:  Unlisted keyword: [ssa mean density] in section: [material 1]
Model Input:  Unlisted keyword: [ssa critical thickness] in section: [material 1]
Model Input:  Unlisted keyword: [ssa friction law] in section: [material 1]
Model Input:  Unlisted keyword: [ssa friction exponent] in section: [material 1]
Model Input:  Unlisted keyword: [ssa friction parameter] in section: [material 1]
Model Input:  Unlisted keyword: [ssa friction linear velocity] in section: [material 1]
Model Input:  Unlisted keyword: [ssa friction post-peak] in section: [material 1]
Model Input:  Unlisted keyword: [ssa friction maximum value] in section: [material 1]
Model Input:  Unlisted keyword: [min h] in section: [material 1]
Model Input:  Unlisted keyword: [nonlinear system newton max divergent iterations] in section: [solver 3]
Model Input:  Unlisted keyword: [sub-element gl parameterization] in section: [solver 3]
Model Input:  Unlisted keyword: [gl integration points number] in section: [solver 3]
Model Input:  Unlisted keyword: [solve ssa star] in section: [solver 3]
Model Input:  Unlisted keyword: [ssa star internal viscosity integration] in section: [solver 3]
Model Input:  Unlisted keyword: [ssa star integrations levels] in section: [solver 3]
Model Input:  Unlisted keyword: [ssastar integration levels ratio] in section: [solver 3]
Model Input:  Unlisted keyword: [compute dhdt] in section: [solver 4]
Model Input:  Unlisted keyword: [draft file] in section: [solver 7]
Model Input:  Unlisted keyword: [melt rates file] in section: [solver 7]
Model Input:  Unlisted keyword: [ssavelocity 2] in section: [boundary condition 1]
Model Input:  Unlisted keyword: [calving front] in section: [boundary condition 2]
Model Input:  Unlisted keyword: [ssavelocity 2] in section: [boundary condition 3]
Model Input:  Unlisted keyword: [ssavelocity 1] in section: [boundary condition 4]
Model Input:  Unlisted keyword: [ssavelocity 2] in section: [boundary condition 4]
WARNING:: CheckTimer: Requesting time from non-existing timer: LoadMesh
WARNING:: CheckTimer: Requesting time from non-existing timer: MeshStabParams
WARNING:: CheckTimer: Requesting time from non-existing timer: LoadMesh
WARNING:: CheckTimer: Requesting time from non-existing timer: MeshStabParams
WARNING:: CheckTimer: Requesting time from non-existing timer: LoadMesh
WARNING:: CheckTimer: Requesting time from non-existing timer: MeshStabParams
WARNING:: CheckLinearSolverOptions: Only MUMPS and CPardiso direct solver interface implemented in parallel, trying MUMPS!
WARNING:: CheckLinearSolverOptions: Only MUMPS and CPardiso direct solver interface implemented in parallel, trying MUMPS!
WARNING:: CheckLinearSolverOptions: Only MUMPS and CPardiso direct solver interface implemented in parallel, trying MUMPS!
WARNING:: CheckLinearSolverOptions: Only MUMPS and CPardiso direct solver interface implemented in parallel, trying MUMPS!
WARNING:: CheckLinearSolverOptions: Only MUMPS and CPardiso direct solver interface implemented in parallel, trying MUMPS!
WARNING:: CheckLinearSolverOptions: Only MUMPS and CPardiso direct solver interface implemented in parallel, trying MUMPS!
WARNING:: CheckTimer: Requesting time from non-existing timer: LoadMesh
WARNING:: CheckTimer: Requesting time from non-existing timer: MeshStabParams
WARNING:: CheckTimer: Requesting time from non-existing timer: LoadMesh
WARNING:: CheckTimer: Requesting time from non-existing timer: MeshStabParams
WARNING:: CheckTimer: Requesting time from non-existing timer: LoadMesh
WARNING:: CheckTimer: Requesting time from non-existing timer: MeshStabParams
WARNING:: CheckLinearSolverOptions: Only MUMPS and CPardiso direct solver interface implemented in parallel, trying MUMPS!
WARNING:: CheckTimer: Requesting time from non-existing timer: LoadMesh
WARNING:: CheckTimer: Requesting time from non-existing timer: MeshStabParams
WARNING:: CheckLinearSolverOptions: Only MUMPS and CPardiso direct solver interface implemented in parallel, trying MUMPS!
WARNING:: CheckTimer: Requesting time from non-existing timer: LoadMesh
WARNING:: CheckLinearSolverOptions: Only MUMPS and CPardiso direct solver interface implemented in parallel, trying MUMPS!
WARNING:: CheckLinearSolverOptions: Only MUMPS and CPardiso direct solver interface implemented in parallel, trying MUMPS!
WARNING:: CheckTimer: Requesting time from non-existing timer: MeshStabParams
WARNING:: CheckTimer: Requesting time from non-existing timer: LoadMesh
WARNING:: CheckTimer: Requesting time from non-existing timer: MeshStabParams
WARNING:: CheckTimer: Requesting time from non-existing timer: LoadMesh
WARNING:: CheckTimer: Requesting time from non-existing timer: MeshStabParams
WARNING:: CheckLinearSolverOptions: Only MUMPS and CPardiso direct solver interface implemented in parallel, trying MUMPS!
WARNING:: CheckTimer: Requesting time from non-existing timer: LoadMesh
WARNING:: CheckLinearSolverOptions: Only MUMPS and CPardiso direct solver interface implemented in parallel, trying MUMPS!
WARNING:: CheckTimer: Requesting time from non-existing timer: MeshStabParams
WARNING:: CheckLinearSolverOptions: Only MUMPS and CPardiso direct solver interface implemented in parallel, trying MUMPS!
WARNING:: CheckLinearSolverOptions: Only MUMPS and CPardiso direct solver interface implemented in parallel, trying MUMPS!
WARNING:: CheckTimer: Requesting time from non-existing timer: LoadMesh
WARNING:: CheckTimer: Requesting time from non-existing timer: LoadMesh
WARNING:: CheckLinearSolverOptions: Only MUMPS and CPardiso direct solver interface implemented in parallel, trying MUMPS!
WARNING:: CheckTimer: Requesting time from non-existing timer: MeshStabParams
WARNING:: CheckTimer: Requesting time from non-existing timer: LoadMesh
WARNING:: CheckTimer: Requesting time from non-existing timer: MeshStabParams
WARNING:: CheckTimer: Requesting time from non-existing timer: MeshStabParams
WARNING:: CheckLinearSolverOptions: Only MUMPS and CPardiso direct solver interface implemented in parallel, trying MUMPS!
WARNING:: CheckLinearSolverOptions: Only MUMPS and CPardiso direct solver interface implemented in parallel, trying MUMPS!
WARNING:: CheckLinearSolverOptions: Only MUMPS and CPardiso direct solver interface implemented in parallel, trying MUMPS!
WARNING:: CheckLinearSolverOptions: Only MUMPS and CPardiso direct solver interface implemented in parallel, trying MUMPS!
WARNING:: CheckLinearSolverOptions: Only MUMPS and CPardiso direct solver interface implemented in parallel, trying MUMPS!
WARNING:: CheckLinearSolverOptions: Only MUMPS and CPardiso direct solver interface implemented in parallel, trying MUMPS!
WARNING:: CheckLinearSolverOptions: Only MUMPS and CPardiso direct solver interface implemented in parallel, trying MUMPS!
WARNING:: CheckLinearSolverOptions: Only MUMPS and CPardiso direct solver interface implemented in parallel, trying MUMPS!
WARNING:: CheckLinearSolverOptions: Only MUMPS and CPardiso direct solver interface implemented in parallel, trying MUMPS!
WARNING:: CheckLinearSolverOptions: Only MUMPS and CPardiso direct solver interface implemented in parallel, trying MUMPS!
WARNING:: CheckTimer: Requesting time from non-existing timer: LoadMesh
WARNING:: CheckLinearSolverOptions: Only MUMPS and CPardiso direct solver interface implemented in parallel, trying MUMPS!
WARNING:: CheckTimer: Requesting time from non-existing timer: LoadMesh
WARNING:: CheckTimer: Requesting time from non-existing timer: MeshStabParams
WARNING:: CheckTimer: Requesting time from non-existing timer: LoadMesh
WARNING:: CheckTimer: Requesting time from non-existing timer: MeshStabParams
WARNING:: CheckLinearSolverOptions: Only MUMPS and CPardiso direct solver interface implemented in parallel, trying MUMPS!
WARNING:: CheckTimer: Requesting time from non-existing timer: MeshStabParams
WARNING:: CheckLinearSolverOptions: Only MUMPS and CPardiso direct solver interface implemented in parallel, trying MUMPS!
WARNING:: CheckTimer: Requesting time from non-existing timer: LoadMesh
WARNING:: CheckTimer: Requesting time from non-existing timer: MeshStabParams
WARNING:: CheckLinearSolverOptions: Only MUMPS and CPardiso direct solver interface implemented in parallel, trying MUMPS!
WARNING:: CheckLinearSolverOptions: Only MUMPS and CPardiso direct solver interface implemented in parallel, trying MUMPS!
WARNING:: CheckLinearSolverOptions: Only MUMPS and CPardiso direct solver interface implemented in parallel, trying MUMPS!
WARNING:: CheckLinearSolverOptions: Only MUMPS and CPardiso direct solver interface implemented in parallel, trying MUMPS!
WARNING:: CheckLinearSolverOptions: Only MUMPS and CPardiso direct solver interface implemented in parallel, trying MUMPS!
WARNING:: CheckLinearSolverOptions: Only MUMPS and CPardiso direct solver interface implemented in parallel, trying MUMPS!
WARNING:: CheckLinearSolverOptions: Only MUMPS and CPardiso direct solver interface implemented in parallel, trying MUMPS!
WARNING:: CheckTimer: Requesting time from non-existing timer: LoadMesh
WARNING:: CheckTimer: Requesting time from non-existing timer: MeshStabParams
WARNING:: CheckLinearSolverOptions: Only MUMPS and CPardiso direct solver interface implemented in parallel, trying MUMPS!
WARNING:: CheckLinearSolverOptions: Only MUMPS and CPardiso direct solver interface implemented in parallel, trying MUMPS!
WARNING:: CheckTimer: Requesting time from non-existing timer: LoadMesh
WARNING:: CheckTimer: Requesting time from non-existing timer: LoadMesh
WARNING:: CheckTimer: Requesting time from non-existing timer: MeshStabParams
WARNING:: CheckTimer: Requesting time from non-existing timer: MeshStabParams
WARNING:: CheckLinearSolverOptions: Only MUMPS and CPardiso direct solver interface implemented in parallel, trying MUMPS!
WARNING:: CheckLinearSolverOptions: Only MUMPS and CPardiso direct solver interface implemented in parallel, trying MUMPS!
WARNING:: CheckLinearSolverOptions: Only MUMPS and CPardiso direct solver interface implemented in parallel, trying MUMPS!
WARNING:: CheckLinearSolverOptions: Only MUMPS and CPardiso direct solver interface implemented in parallel, trying MUMPS!
WARNING:: CheckLinearSolverOptions: Only MUMPS and CPardiso direct solver interface implemented in parallel, trying MUMPS!
WARNING:: CheckTimer: Requesting time from non-existing timer: LoadMesh
WARNING:: CheckTimer: Requesting time from non-existing timer: MeshStabParams
WARNING:: CheckLinearSolverOptions: Only MUMPS and CPardiso direct solver interface implemented in parallel, trying MUMPS!
WARNING:: CheckLinearSolverOptions: Only MUMPS and CPardiso direct solver interface implemented in parallel, trying MUMPS!
WARNING:: CheckTimer: Requesting time from non-existing timer: LoadMesh
WARNING:: CheckTimer: Requesting time from non-existing timer: MeshStabParams
WARNING:: CheckLinearSolverOptions: Only MUMPS and CPardiso direct solver interface implemented in parallel, trying MUMPS!
WARNING:: CheckLinearSolverOptions: Only MUMPS and CPardiso direct solver interface implemented in parallel, trying MUMPS!
WARNING:: CheckTimer: Requesting time from non-existing timer: LoadMesh
WARNING:: CheckTimer: Requesting time from non-existing timer: MeshStabParams
WARNING:: CheckLinearSolverOptions: Only MUMPS and CPardiso direct solver interface implemented in parallel, trying MUMPS!
WARNING:: CheckLinearSolverOptions: Only MUMPS and CPardiso direct solver interface implemented in parallel, trying MUMPS!
MAIN: 
MAIN: -------------------------------------
MAIN:  Time: 1/6   4203.79999999939
MAIN: -------------------------------------
MAIN: 
EffectivePressure: Constant >Gravity< not found. Setting to -9.746289e15
USF_WaterPressure: Constant >Gravity< not found. Setting to -9.746289e15
SSASolver-SSABasalSolver: Memory allocation done.
ComputeChange: NS (ITER=1) (NRM,RELC): (  230.53817      2.0000000     ) :: ssa
ComputeChange: NS (ITER=2) (NRM,RELC): (  230.50257     0.15444995E-03 ) :: ssa
ComputeChange: NS (ITER=3) (NRM,RELC): (  230.42943     0.31734999E-03 ) :: ssa
ComputeChange: NS (ITER=4) (NRM,RELC): (  230.42958     0.65271880E-06 ) :: ssa
ComputeChange: NS (ITER=5) (NRM,RELC): (  230.42958     0.79806155E-11 ) :: ssa
ComputeChange: NS (ITER=2) (NRM,RELC): (  824.02289      2.0000000     ) :: thickness
ComputeChange: NS (ITER=4) (NRM,RELC): (  824.02289      0.0000000     ) :: thickness
NUMERICAL ERROR:: SolveEquations: Coupled system did not converge
NUMERICAL ERROR:: SolveEquations: Coupled system did not converge
NUMERICAL ERROR:: SolveEquations: Coupled system did not converge
NUMERICAL ERROR:: SolveEquations: Coupled system did not converge
NUMERICAL ERROR:: SolveEquations: Coupled system did not converge
NUMERICAL ERROR:: SolveEquations: Coupled system did not converge
NUMERICAL ERROR:: SolveEquations: Coupled system did not converge
NUMERICAL ERROR:: SolveEquations: Coupled system did not converge
NUMERICAL ERROR:: SolveEquations: Coupled system did not converge
NUMERICAL ERROR:: SolveEquations: Coupled system did not converge
NUMERICAL ERROR:: SolveEquations: Coupled system did not converge
NUMERICAL ERROR:: SolveEquations: Coupled system did not converge
NUMERICAL ERROR:: SolveEquations: Coupled system did not converge
NUMERICAL ERROR:: SolveEquations: Coupled system did not converge
NUMERICAL ERROR:: SolveEquations: Coupled system did not converge
NUMERICAL ERROR:: SolveEquations: Coupled system did not converge
NUMERICAL ERROR:: SolveEquations: Coupled system did not converge
NUMERICAL ERROR:: SolveEquations: Coupled system did not converge
NUMERICAL ERROR:: SolveEquations: Coupled system did not converge
NUMERICAL ERROR:: SolveEquations: Coupled system did not converge
NUMERICAL ERROR:: SolveEquations: Coupled system did not converge
NUMERICAL ERROR:: SolveEquations: Coupled system did not converge
NUMERICAL ERROR:: SolveEquations: Coupled system did not converge
NUMERICAL ERROR:: SolveEquations: Coupled system did not converge
MAIN: 
MAIN: -------------------------------------
MAIN:  Time: 2/6   4203.89999999939
MAIN: Estimated time left:  1.2 minutes
MAIN: -------------------------------------
MAIN: 
EffectivePressure: Constant >Gravity< not found. Setting to -9.746289e15
ComputeChange: NS (ITER=1) (NRM,RELC): (  230.38808     0.18009539E-03 ) :: ssa
ComputeChange: NS (ITER=2) (NRM,RELC): (  230.36499     0.10024394E-03 ) :: ssa
ComputeChange: NS (ITER=3) (NRM,RELC): (  230.32069     0.19233512E-03 ) :: ssa
ComputeChange: NS (ITER=4) (NRM,RELC): (  230.32076     0.32139990E-06 ) :: ssa
ComputeChange: NS (ITER=5) (NRM,RELC): (  230.32076     0.16871324E-11 ) :: ssa
ComputeChange: NS (ITER=2) (NRM,RELC): (  823.99507     0.33757485E-04 ) :: thickness
ComputeChange: NS (ITER=4) (NRM,RELC): (  823.99507      0.0000000     ) :: thickness
NUMERICAL ERROR:: SolveEquations: Coupled system did not converge
MAIN: 
MAIN: -------------------------------------
NUMERICAL ERROR:: SolveEquations: Coupled system did not converge
NUMERICAL ERROR:: SolveEquations: Coupled system did not converge
NUMERICAL ERROR:: SolveEquations: Coupled system did not converge
NUMERICAL ERROR:: SolveEquations: Coupled system did not converge
NUMERICAL ERROR:: SolveEquations: Coupled system did not converge
NUMERICAL ERROR:: SolveEquations: Coupled system did not converge
NUMERICAL ERROR:: SolveEquations: Coupled system did not converge
NUMERICAL ERROR:: SolveEquations: Coupled system did not converge
NUMERICAL ERROR:: SolveEquations: Coupled system did not converge
NUMERICAL ERROR:: SolveEquations: Coupled system did not converge
NUMERICAL ERROR:: SolveEquations: Coupled system did not converge
NUMERICAL ERROR:: SolveEquations: Coupled system did not converge
NUMERICAL ERROR:: SolveEquations: Coupled system did not converge
NUMERICAL ERROR:: SolveEquations: Coupled system did not converge
NUMERICAL ERROR:: SolveEquations: Coupled system did not converge
NUMERICAL ERROR:: SolveEquations: Coupled system did not converge
NUMERICAL ERROR:: SolveEquations: Coupled system did not converge
NUMERICAL ERROR:: SolveEquations: Coupled system did not converge
NUMERICAL ERROR:: SolveEquations: Coupled system did not converge
NUMERICAL ERROR:: SolveEquations: Coupled system did not converge
NUMERICAL ERROR:: SolveEquations: Coupled system did not converge
NUMERICAL ERROR:: SolveEquations: Coupled system did not converge
NUMERICAL ERROR:: SolveEquations: Coupled system did not converge
MAIN:  Time: 3/6   4203.99999999939
MAIN: Estimated time left: 35.1 seconds
MAIN: -------------------------------------
MAIN: 
EffectivePressure: Constant >Gravity< not found. Setting to -9.746289e15
ComputeChange: NS (ITER=1) (NRM,RELC): (  230.28105     0.17242792E-03 ) :: ssa
ComputeChange: NS (ITER=2) (NRM,RELC): (  230.25926     0.94617611E-04 ) :: ssa
ComputeChange: NS (ITER=3) (NRM,RELC): (  230.21796     0.17941021E-03 ) :: ssa
ComputeChange: NS (ITER=4) (NRM,RELC): (  230.21803     0.31280915E-06 ) :: ssa
ComputeChange: NS (ITER=5) (NRM,RELC): (  230.21803     0.16308487E-11 ) :: ssa
ComputeChange: NS (ITER=2) (NRM,RELC): (  823.96733     0.33662618E-04 ) :: thickness
ComputeChange: NS (ITER=4) (NRM,RELC): (  823.96733      0.0000000     ) :: thickness
NUMERICAL ERROR:: SolveEquations: Coupled system did not converge
MAIN: 
MAIN: -------------------------------------
MAIN:  Time: 4/6   4204.09999999939
NUMERICAL ERROR:: SolveEquations: Coupled system did not converge
NUMERICAL ERROR:: SolveEquations: Coupled system did not converge
NUMERICAL ERROR:: SolveEquations: Coupled system did not converge
NUMERICAL ERROR:: SolveEquations: Coupled system did not converge
NUMERICAL ERROR:: SolveEquations: Coupled system did not converge
NUMERICAL ERROR:: SolveEquations: Coupled system did not converge
NUMERICAL ERROR:: SolveEquations: Coupled system did not converge
NUMERICAL ERROR:: SolveEquations: Coupled system did not converge
NUMERICAL ERROR:: SolveEquations: Coupled system did not converge
NUMERICAL ERROR:: SolveEquations: Coupled system did not converge
NUMERICAL ERROR:: SolveEquations: Coupled system did not converge
NUMERICAL ERROR:: SolveEquations: Coupled system did not converge
NUMERICAL ERROR:: SolveEquations: Coupled system did not converge
NUMERICAL ERROR:: SolveEquations: Coupled system did not converge
NUMERICAL ERROR:: SolveEquations: Coupled system did not converge
NUMERICAL ERROR:: SolveEquations: Coupled system did not converge
NUMERICAL ERROR:: SolveEquations: Coupled system did not converge
NUMERICAL ERROR:: SolveEquations: Coupled system did not converge
NUMERICAL ERROR:: SolveEquations: Coupled system did not converge
NUMERICAL ERROR:: SolveEquations: Coupled system did not converge
NUMERICAL ERROR:: SolveEquations: Coupled system did not converge
NUMERICAL ERROR:: SolveEquations: Coupled system did not converge
NUMERICAL ERROR:: SolveEquations: Coupled system did not converge
MAIN: Estimated time left: 19.4 seconds
MAIN: -------------------------------------
MAIN: 
EffectivePressure: Constant >Gravity< not found. Setting to -9.746289e15
ComputeChange: NS (ITER=1) (NRM,RELC): (  230.17779     0.17480535E-03 ) :: ssa
ComputeChange: NS (ITER=2) (NRM,RELC): (  230.15598     0.94745307E-04 ) :: ssa
ComputeChange: NS (ITER=3) (NRM,RELC): (  230.11510     0.17765754E-03 ) :: ssa
ComputeChange: NS (ITER=4) (NRM,RELC): (  230.11517     0.30209928E-06 ) :: ssa
ComputeChange: NS (ITER=5) (NRM,RELC): (  230.11517     0.15858787E-11 ) :: ssa
ComputeChange: NS (ITER=2) (NRM,RELC): (  823.93967     0.33566942E-04 ) :: thickness
ComputeChange: NS (ITER=4) (NRM,RELC): (  823.93967      0.0000000     ) :: thickness
NUMERICAL ERROR:: SolveEquations: Coupled system did not converge
MAIN: 
MAIN: -------------------------------------
MAIN:  Time: 5/6   4204.19999999939
NUMERICAL ERROR:: SolveEquations: Coupled system did not converge
NUMERICAL ERROR:: SolveEquations: Coupled system did not converge
NUMERICAL ERROR:: SolveEquations: Coupled system did not converge
NUMERICAL ERROR:: SolveEquations: Coupled system did not converge
NUMERICAL ERROR:: SolveEquations: Coupled system did not converge
NUMERICAL ERROR:: SolveEquations: Coupled system did not converge
NUMERICAL ERROR:: SolveEquations: Coupled system did not converge
NUMERICAL ERROR:: SolveEquations: Coupled system did not converge
NUMERICAL ERROR:: SolveEquations: Coupled system did not converge
NUMERICAL ERROR:: SolveEquations: Coupled system did not converge
NUMERICAL ERROR:: SolveEquations: Coupled system did not converge
NUMERICAL ERROR:: SolveEquations: Coupled system did not converge
NUMERICAL ERROR:: SolveEquations: Coupled system did not converge
NUMERICAL ERROR:: SolveEquations: Coupled system did not converge
NUMERICAL ERROR:: SolveEquations: Coupled system did not converge
NUMERICAL ERROR:: SolveEquations: Coupled system did not converge
NUMERICAL ERROR:: SolveEquations: Coupled system did not converge
NUMERICAL ERROR:: SolveEquations: Coupled system did not converge
NUMERICAL ERROR:: SolveEquations: Coupled system did not converge
NUMERICAL ERROR:: SolveEquations: Coupled system did not converge
NUMERICAL ERROR:: SolveEquations: Coupled system did not converge
NUMERICAL ERROR:: SolveEquations: Coupled system did not converge
NUMERICAL ERROR:: SolveEquations: Coupled system did not converge
MAIN: Estimated time left: 12.5 seconds
MAIN: -------------------------------------
MAIN: 
EffectivePressure: Constant >Gravity< not found. Setting to -9.746289e15
ComputeChange: NS (ITER=1) (NRM,RELC): (  230.07563     0.17181714E-03 ) :: ssa
ComputeChange: NS (ITER=2) (NRM,RELC): (  230.05443     0.92165420E-04 ) :: ssa
ComputeChange: NS (ITER=3) (NRM,RELC): (  230.01491     0.17179424E-03 ) :: ssa
ComputeChange: NS (ITER=4) (NRM,RELC): (  230.01498     0.29560923E-06 ) :: ssa
ComputeChange: NS (ITER=5) (NRM,RELC): (  230.01498     0.14618928E-11 ) :: ssa
ComputeChange: NS (ITER=2) (NRM,RELC): (  823.91210     0.33471852E-04 ) :: thickness
ComputeChange: NS (ITER=4) (NRM,RELC): (  823.91210      0.0000000     ) :: thickness
NUMERICAL ERROR:: SolveEquations: Coupled system did not converge
MAIN: 
MAIN: -------------------------------------
NUMERICAL ERROR:: SolveEquations: Coupled system did not converge
NUMERICAL ERROR:: SolveEquations: Coupled system did not converge
NUMERICAL ERROR:: SolveEquations: Coupled system did not converge
NUMERICAL ERROR:: SolveEquations: Coupled system did not converge
NUMERICAL ERROR:: SolveEquations: Coupled system did not converge
NUMERICAL ERROR:: SolveEquations: Coupled system did not converge
NUMERICAL ERROR:: SolveEquations: Coupled system did not converge
NUMERICAL ERROR:: SolveEquations: Coupled system did not converge
NUMERICAL ERROR:: SolveEquations: Coupled system did not converge
NUMERICAL ERROR:: SolveEquations: Coupled system did not converge
NUMERICAL ERROR:: SolveEquations: Coupled system did not converge
NUMERICAL ERROR:: SolveEquations: Coupled system did not converge
NUMERICAL ERROR:: SolveEquations: Coupled system did not converge
NUMERICAL ERROR:: SolveEquations: Coupled system did not converge
NUMERICAL ERROR:: SolveEquations: Coupled system did not converge
NUMERICAL ERROR:: SolveEquations: Coupled system did not converge
NUMERICAL ERROR:: SolveEquations: Coupled system did not converge
NUMERICAL ERROR:: SolveEquations: Coupled system did not converge
NUMERICAL ERROR:: SolveEquations: Coupled system did not converge
NUMERICAL ERROR:: SolveEquations: Coupled system did not converge
NUMERICAL ERROR:: SolveEquations: Coupled system did not converge
NUMERICAL ERROR:: SolveEquations: Coupled system did not converge
NUMERICAL ERROR:: SolveEquations: Coupled system did not converge
MAIN:  Time: 6/6   4204.29999999939
MAIN: Estimated time left:  5.6 seconds
MAIN: -------------------------------------
MAIN: 
EffectivePressure: Constant >Gravity< not found. Setting to -9.746289e15
ComputeChange: NS (ITER=1) (NRM,RELC): (  229.97601     0.16943877E-03 ) :: ssa
ComputeChange: NS (ITER=2) (NRM,RELC): (  229.95536     0.89778120E-04 ) :: ssa
ComputeChange: NS (ITER=3) (NRM,RELC): (  229.91724     0.16580094E-03 ) :: ssa
ComputeChange: NS (ITER=4) (NRM,RELC): (  229.91730     0.29064740E-06 ) :: ssa
ComputeChange: NS (ITER=5) (NRM,RELC): (  229.91730     0.14573219E-11 ) :: ssa
ComputeChange: NS (ITER=2) (NRM,RELC): (  823.88460     0.33377549E-04 ) :: thickness
ComputeChange: NS (ITER=4) (NRM,RELC): (  823.88460      0.0000000     ) :: thickness
NUMERICAL ERROR:: SolveEquations: Coupled system did not converge
NUMERICAL ERROR:: SolveEquations: Coupled system did not converge
NUMERICAL ERROR:: SolveEquations: Coupled system did not converge
NUMERICAL ERROR:: SolveEquations: Coupled system did not converge
NUMERICAL ERROR:: SolveEquations: Coupled system did not converge
NUMERICAL ERROR:: SolveEquations: Coupled system did not converge
NUMERICAL ERROR:: SolveEquations: Coupled system did not converge
NUMERICAL ERROR:: SolveEquations: Coupled system did not converge
NUMERICAL ERROR:: SolveEquations: Coupled system did not converge
NUMERICAL ERROR:: SolveEquations: Coupled system did not converge
NUMERICAL ERROR:: SolveEquations: Coupled system did not converge
NUMERICAL ERROR:: SolveEquations: Coupled system did not converge
NUMERICAL ERROR:: SolveEquations: Coupled system did not converge
NUMERICAL ERROR:: SolveEquations: Coupled system did not converge
NUMERICAL ERROR:: SolveEquations: Coupled system did not converge
NUMERICAL ERROR:: SolveEquations: Coupled system did not converge
NUMERICAL ERROR:: SolveEquations: Coupled system did not converge
NUMERICAL ERROR:: SolveEquations: Coupled system did not converge
NUMERICAL ERROR:: SolveEquations: Coupled system did not converge
NUMERICAL ERROR:: SolveEquations: Coupled system did not converge
NUMERICAL ERROR:: SolveEquations: Coupled system did not converge
NUMERICAL ERROR:: SolveEquations: Coupled system did not converge
NUMERICAL ERROR:: SolveEquations: Coupled system did not converge
NUMERICAL ERROR:: SolveEquations: Coupled system did not converge
ElmerSolver: *** Elmer Solver: ALL DONE ***
ElmerSolver: The end
SOLVER TOTAL TIME(CPU,REAL):        34.14       54.15
ELMER SOLVER FINISHED AT: 2017/05/01 10:14:02
0

hola
/scratch/cnt0021/gge6066/imerino/ELMER_MISOMIP/PRUEBA/Results/Ice1r3/ice1r30002.pvtu
args
Interpolating Elmer to NEMO grid
           
Elmer grid is found in; 
        /scratch/cnt0021/gge6066/imerino/ELMER_MISOMIP/PRUEBA/Results/Ice1r3/ice1r30002.pvtu
350000 640000 0 80000 
OPEN NETCDF.....
NetCDF dims 242 x 42
Reading Netcdf

