Starting at Tue May  2 11:26:30 CEST 2017
Running on hosts: n4239
Running on 1 nodes.
Running on 24 processors.
Current working directory is /home/imerino/CM_MISOMIP/RUNS/PRUEBA
ELMER SOLVER (v 8.2) STARTED AT: 2017/05/02 11:26:31
ELMER SOLVER (v 8.2) STARTED AT: 2017/05/02 11:26:31
ELMER SOLVER (v 8.2) STARTED AT: 2017/05/02 11:26:31
ELMER SOLVER (v 8.2) STARTED AT: 2017/05/02 11:26:31
ELMER SOLVER (v 8.2) STARTED AT: 2017/05/02 11:26:31
ELMER SOLVER (v 8.2) STARTED AT: 2017/05/02 11:26:31
ELMER SOLVER (v 8.2) STARTED AT: 2017/05/02 11:26:31
ELMER SOLVER (v 8.2) STARTED AT: 2017/05/02 11:26:31
ELMER SOLVER (v 8.2) STARTED AT: 2017/05/02 11:26:31
ELMER SOLVER (v 8.2) STARTED AT: 2017/05/02 11:26:31
ELMER SOLVER (v 8.2) STARTED AT: 2017/05/02 11:26:31
ELMER SOLVER (v 8.2) STARTED AT: 2017/05/02 11:26:31
ELMER SOLVER (v 8.2) STARTED AT: 2017/05/02 11:26:31
ELMER SOLVER (v 8.2) STARTED AT: 2017/05/02 11:26:31
ELMER SOLVER (v 8.2) STARTED AT: 2017/05/02 11:26:31
ELMER SOLVER (v 8.2) STARTED AT: 2017/05/02 11:26:31
ELMER SOLVER (v 8.2) STARTED AT: 2017/05/02 11:26:31
ELMER SOLVER (v 8.2) STARTED AT: 2017/05/02 11:26:31
ELMER SOLVER (v 8.2) STARTED AT: 2017/05/02 11:26:31
ELMER SOLVER (v 8.2) STARTED AT: 2017/05/02 11:26:31
ELMER SOLVER (v 8.2) STARTED AT: 2017/05/02 11:26:31
ELMER SOLVER (v 8.2) STARTED AT: 2017/05/02 11:26:31
ELMER SOLVER (v 8.2) STARTED AT: 2017/05/02 11:26:31
ELMER SOLVER (v 8.2) STARTED AT: 2017/05/02 11:26:31
ParCommInit:  Initialize #PEs:           24
ParCommInit:  Initialize #PEs:           24
ParCommInit:  Initialize #PEs:           24
ParCommInit:  Initialize #PEs:           24
ParCommInit:  Initialize #PEs:           24
ParCommInit:  Initialize #PEs:           24
ParCommInit:  Initialize #PEs:           24
ParCommInit:  Initialize #PEs:           24
ParCommInit:  Initialize #PEs:           24
ParCommInit:  Initialize #PEs:           24
ParCommInit:  Initialize #PEs:           24
ParCommInit:  Initialize #PEs:           24
ParCommInit:  Initialize #PEs:           24
ParCommInit:  Initialize #PEs:           24
ParCommInit:  Initialize #PEs:           24
ParCommInit:  Initialize #PEs:           24
ParCommInit:  Initialize #PEs:           24
ParCommInit:  Initialize #PEs:           24
ParCommInit:  Initialize #PEs:           24
ParCommInit:  Initialize #PEs:           24
ParCommInit:  Initialize #PEs:           24
ParCommInit:  Initialize #PEs:           24
ParCommInit:  Initialize #PEs:           24
ParCommInit:  Initialize #PEs:           24
MAIN: 
MAIN: =============================================================
MAIN: ElmerSolver finite element software, Welcome!
MAIN: This program is free software licensed under (L)GPL
MAIN: Copyright 1st April 1995 - , CSC - IT Center for Science Ltd.
MAIN: Webpage http://www.csc.fi/elmer, Email elmeradm@csc.fi
MAIN: Version: 8.2 (Rev: 3e9803d, Compiled: 2017-04-28)
MAIN:  Running in parallel using 24 tasks.
MAIN:  MUMPS library linked in.
MAIN:  Intel MKL linked in.
MAIN: =============================================================
MAIN: 
MAIN: 
MAIN: -------------------------------------
MAIN: Reading Model: Ice1r1.sif
LoadInputFile: Scanning input file: Ice1r1.sif
ERROR:: Model Input:  Unknown input section name: teady state min iterations
ERROR:: Model Input:  Unknown input section name: teady state min iterations
ERROR:: Model Input:  Unknown input section name: teady state min iterations
ERROR:: Model Input:  Unknown input section name: teady state min iterations
ERROR:: Model Input:  Unknown input section name: teady state min iterations
ERROR:: Model Input:  Unknown input section name: teady state min iterations
ERROR:: Model Input:  Unknown input section name: teady state min iterations
ERROR:: Model Input:  Unknown input section name: teady state min iterations
ERROR:: Model Input:  Unknown input section name: teady state min iterations
ERROR:: Model Input:  Unknown input section name: teady state min iterations
ERROR:: Model Input:  Unknown input section name: teady state min iterations
ERROR:: Model Input:  Unknown input section name: teady state min iterations
ERROR:: Model Input:  Unknown input section name: teady state min iterations
ERROR:: Model Input:  Unknown input section name: teady state min iterations
ERROR:: Model Input:  Unknown input section name: teady state min iterations
ERROR:: Model Input:  Unknown input section name: teady state min iterations
ERROR:: Model Input:  Unknown input section name: teady state min iterations
ERROR:: Model Input:  Unknown input section name: teady state min iterations
ERROR:: Model Input:  Unknown input section name: teady state min iterations
ERROR:: Model Input:  Unknown input section name: teady state min iterations
ERROR:: Model Input:  Unknown input section name: teady state min iterations
ERROR:: Model Input:  Unknown input section name: teady state min iterations
ERROR:: Model Input:  Unknown input section name: teady state min iterations
ERROR:: Model Input:  Unknown input section name: teady state min iterations
0

hola
/scratch/cnt0021/gge6066/imerino/ELMER_MISOMIP/PRUEBA/Results/Ice1r1/ice1r10001.pvtu
