Starting at Fri Apr 28 17:38:46 CEST 2017
Running on hosts: n3618
Running on 1 nodes.
Running on 24 processors.
Current working directory is /home/imerino/CM_MISOMIP/RUNS/PRUEBA
ELMER SOLVER (v 8.2) STARTED AT: 2017/04/28 17:38:47
ELMER SOLVER (v 8.2) STARTED AT: 2017/04/28 17:38:47
ELMER SOLVER (v 8.2) STARTED AT: 2017/04/28 17:38:47
ELMER SOLVER (v 8.2) STARTED AT: 2017/04/28 17:38:47
ELMER SOLVER (v 8.2) STARTED AT: 2017/04/28 17:38:47
ELMER SOLVER (v 8.2) STARTED AT: 2017/04/28 17:38:47
ELMER SOLVER (v 8.2) STARTED AT: 2017/04/28 17:38:47
ELMER SOLVER (v 8.2) STARTED AT: 2017/04/28 17:38:47
ELMER SOLVER (v 8.2) STARTED AT: 2017/04/28 17:38:47
ELMER SOLVER (v 8.2) STARTED AT: 2017/04/28 17:38:47
ELMER SOLVER (v 8.2) STARTED AT: 2017/04/28 17:38:47
ELMER SOLVER (v 8.2) STARTED AT: 2017/04/28 17:38:47
ELMER SOLVER (v 8.2) STARTED AT: 2017/04/28 17:38:47
ELMER SOLVER (v 8.2) STARTED AT: 2017/04/28 17:38:47
ELMER SOLVER (v 8.2) STARTED AT: 2017/04/28 17:38:47
ELMER SOLVER (v 8.2) STARTED AT: 2017/04/28 17:38:47
ELMER SOLVER (v 8.2) STARTED AT: 2017/04/28 17:38:47
ELMER SOLVER (v 8.2) STARTED AT: 2017/04/28 17:38:47
ELMER SOLVER (v 8.2) STARTED AT: 2017/04/28 17:38:47
ELMER SOLVER (v 8.2) STARTED AT: 2017/04/28 17:38:47
ELMER SOLVER (v 8.2) STARTED AT: 2017/04/28 17:38:47
ELMER SOLVER (v 8.2) STARTED AT: 2017/04/28 17:38:47
ELMER SOLVER (v 8.2) STARTED AT: 2017/04/28 17:38:47
ELMER SOLVER (v 8.2) STARTED AT: 2017/04/28 17:38:47
ParCommInit:  Initialize #PEs:           24
ParCommInit:  Initialize #PEs:           24
ParCommInit:  Initialize #PEs:           24
ParCommInit:  Initialize #PEs:           24
ParCommInit:  Initialize #PEs:           24
ParCommInit:  Initialize #PEs:           24
ParCommInit:  Initialize #PEs:           24
ParCommInit:  Initialize #PEs:           24
ParCommInit:  Initialize #PEs:           24
ParCommInit:  Initialize #PEs:           24
ParCommInit:  Initialize #PEs:           24
ParCommInit:  Initialize #PEs:           24
ParCommInit:  Initialize #PEs:           24
ParCommInit:  Initialize #PEs:           24
ParCommInit:  Initialize #PEs:           24
ParCommInit:  Initialize #PEs:           24
ParCommInit:  Initialize #PEs:           24
ParCommInit:  Initialize #PEs:           24
ParCommInit:  Initialize #PEs:           24
ParCommInit:  Initialize #PEs:           24
ParCommInit:  Initialize #PEs:           24
ParCommInit:  Initialize #PEs:           24
ParCommInit:  Initialize #PEs:           24
ParCommInit:  Initialize #PEs:           24
MAIN: 
MAIN: =============================================================
MAIN: ElmerSolver finite element software, Welcome!
MAIN: This program is free software licensed under (L)GPL
MAIN: Copyright 1st April 1995 - , CSC - IT Center for Science Ltd.
MAIN: Webpage http://www.csc.fi/elmer, Email elmeradm@csc.fi
MAIN: Version: 8.2 (Rev: 3e9803d, Compiled: 2017-04-28)
MAIN:  Running in parallel using 24 tasks.
MAIN:  MUMPS library linked in.
MAIN:  Intel MKL linked in.
MAIN: =============================================================
MAIN: 
MAIN: 
MAIN: -------------------------------------
MAIN: Reading Model: Ice1r1.sif
LoadInputFile: Scanning input file: Ice1r1.sif
LoadInputFile: Loading input file: Ice1r1.sif
Model Input:  Unlisted keyword: [sea level] in section: [constants]
Model Input:  Unlisted keyword: [water density] in section: [constants]
Model Input:  Unlisted keyword: [restart before initial conditions] in section: [simulation]
Model Input:  Unlisted keyword: [meltfactor] in section: [simulation]
Model Input:  Unlisted keyword: [melt] in section: [initial condition 1]
Model Input:  Unlisted keyword: [top surface accumulation] in section: [body force 1]
Model Input:  Unlisted keyword: [water pressure] in section: [body force 1]
Loading user function library: [./Executables/USF_WaterPressure]...[WaterPressure]
Model Input:  Unlisted keyword: [ssastar integrated viscosity] in section: [material 1]
Model Input:  Unlisted keyword: [ssa mean viscosity] in section: [material 1]
Model Input:  Unlisted keyword: [ssa mean density] in section: [material 1]
Model Input:  Unlisted keyword: [ssa critical thickness] in section: [material 1]
Model Input:  Unlisted keyword: [ssa friction law] in section: [material 1]
Model Input:  Unlisted keyword: [ssa friction exponent] in section: [material 1]
Model Input:  Unlisted keyword: [ssa friction parameter] in section: [material 1]
Model Input:  Unlisted keyword: [ssa friction linear velocity] in section: [material 1]
Model Input:  Unlisted keyword: [ssa friction post-peak] in section: [material 1]
Model Input:  Unlisted keyword: [ssa friction maximum value] in section: [material 1]
Model Input:  Unlisted keyword: [min h] in section: [material 1]
Model Input:  Unlisted keyword: [nonlinear system newton max divergent iterations] in section: [solver 3]
Model Input:  Unlisted keyword: [sub-element gl parameterization] in section: [solver 3]
Model Input:  Unlisted keyword: [gl integration points number] in section: [solver 3]
Model Input:  Unlisted keyword: [solve ssa star] in section: [solver 3]
Model Input:  Unlisted keyword: [ssa star internal viscosity integration] in section: [solver 3]
Model Input:  Unlisted keyword: [ssa star integrations levels] in section: [solver 3]
Model Input:  Unlisted keyword: [ssastar integration levels ratio] in section: [solver 3]
Model Input:  Unlisted keyword: [compute dhdt] in section: [solver 4]
Model Input:  Unlisted keyword: [draft file] in section: [solver 7]
Model Input:  Unlisted keyword: [melt rates file] in section: [solver 7]
Model Input:  Unlisted keyword: [ssavelocity 2] in section: [boundary condition 1]
Model Input:  Unlisted keyword: [calving front] in section: [boundary condition 2]
Model Input:  Unlisted keyword: [ssavelocity 2] in section: [boundary condition 3]
Model Input:  Unlisted keyword: [ssavelocity 1] in section: [boundary condition 4]
Model Input:  Unlisted keyword: [ssavelocity 2] in section: [boundary condition 4]
WARNING:: CheckTimer: Requesting time from non-existing timer: LoadMesh
WARNING:: CheckTimer: Requesting time from non-existing timer: MeshStabParams
WARNING:: CheckTimer: Requesting time from non-existing timer: LoadMesh
WARNING:: CheckTimer: Requesting time from non-existing timer: LoadMesh
WARNING:: CheckTimer: Requesting time from non-existing timer: MeshStabParams
WARNING:: CheckTimer: Requesting time from non-existing timer: MeshStabParams
WARNING:: CheckTimer: Requesting time from non-existing timer: LoadMesh
WARNING:: CheckTimer: Requesting time from non-existing timer: MeshStabParams
WARNING:: CheckLinearSolverOptions: Only MUMPS and CPardiso direct solver interface implemented in parallel, trying MUMPS!
WARNING:: CheckLinearSolverOptions: Only MUMPS and CPardiso direct solver interface implemented in parallel, trying MUMPS!
WARNING:: CheckLinearSolverOptions: Only MUMPS and CPardiso direct solver interface implemented in parallel, trying MUMPS!
WARNING:: CheckLinearSolverOptions: Only MUMPS and CPardiso direct solver interface implemented in parallel, trying MUMPS!
WARNING:: CheckLinearSolverOptions: Only MUMPS and CPardiso direct solver interface implemented in parallel, trying MUMPS!
WARNING:: CheckTimer: Requesting time from non-existing timer: LoadMesh
WARNING:: CheckTimer: Requesting time from non-existing timer: MeshStabParams
WARNING:: CheckTimer: Requesting time from non-existing timer: LoadMesh
WARNING:: CheckLinearSolverOptions: Only MUMPS and CPardiso direct solver interface implemented in parallel, trying MUMPS!
WARNING:: CheckLinearSolverOptions: Only MUMPS and CPardiso direct solver interface implemented in parallel, trying MUMPS!
WARNING:: CheckTimer: Requesting time from non-existing timer: MeshStabParams
WARNING:: CheckLinearSolverOptions: Only MUMPS and CPardiso direct solver interface implemented in parallel, trying MUMPS!
WARNING:: CheckLinearSolverOptions: Only MUMPS and CPardiso direct solver interface implemented in parallel, trying MUMPS!
WARNING:: CheckLinearSolverOptions: Only MUMPS and CPardiso direct solver interface implemented in parallel, trying MUMPS!
WARNING:: CheckLinearSolverOptions: Only MUMPS and CPardiso direct solver interface implemented in parallel, trying MUMPS!
WARNING:: CheckTimer: Requesting time from non-existing timer: LoadMesh
WARNING:: CheckTimer: Requesting time from non-existing timer: LoadMesh
WARNING:: CheckTimer: Requesting time from non-existing timer: MeshStabParams
WARNING:: CheckTimer: Requesting time from non-existing timer: MeshStabParams
WARNING:: CheckLinearSolverOptions: Only MUMPS and CPardiso direct solver interface implemented in parallel, trying MUMPS!
WARNING:: CheckTimer: Requesting time from non-existing timer: LoadMesh
WARNING:: CheckTimer: Requesting time from non-existing timer: MeshStabParams
WARNING:: CheckLinearSolverOptions: Only MUMPS and CPardiso direct solver interface implemented in parallel, trying MUMPS!
WARNING:: CheckLinearSolverOptions: Only MUMPS and CPardiso direct solver interface implemented in parallel, trying MUMPS!
WARNING:: CheckTimer: Requesting time from non-existing timer: LoadMesh
WARNING:: CheckTimer: Requesting time from non-existing timer: MeshStabParams
WARNING:: CheckLinearSolverOptions: Only MUMPS and CPardiso direct solver interface implemented in parallel, trying MUMPS!
WARNING:: CheckTimer: Requesting time from non-existing timer: LoadMesh
WARNING:: CheckTimer: Requesting time from non-existing timer: LoadMesh
WARNING:: CheckLinearSolverOptions: Only MUMPS and CPardiso direct solver interface implemented in parallel, trying MUMPS!
WARNING:: CheckLinearSolverOptions: Only MUMPS and CPardiso direct solver interface implemented in parallel, trying MUMPS!
WARNING:: CheckTimer: Requesting time from non-existing timer: LoadMesh
WARNING:: CheckTimer: Requesting time from non-existing timer: MeshStabParams
WARNING:: CheckTimer: Requesting time from non-existing timer: MeshStabParams
WARNING:: CheckTimer: Requesting time from non-existing timer: MeshStabParams
WARNING:: CheckTimer: Requesting time from non-existing timer: LoadMesh
WARNING:: CheckTimer: Requesting time from non-existing timer: MeshStabParams
WARNING:: CheckLinearSolverOptions: Only MUMPS and CPardiso direct solver interface implemented in parallel, trying MUMPS!
WARNING:: CheckLinearSolverOptions: Only MUMPS and CPardiso direct solver interface implemented in parallel, trying MUMPS!
WARNING:: CheckLinearSolverOptions: Only MUMPS and CPardiso direct solver interface implemented in parallel, trying MUMPS!
WARNING:: CheckLinearSolverOptions: Only MUMPS and CPardiso direct solver interface implemented in parallel, trying MUMPS!
WARNING:: CheckLinearSolverOptions: Only MUMPS and CPardiso direct solver interface implemented in parallel, trying MUMPS!
WARNING:: CheckTimer: Requesting time from non-existing timer: LoadMesh
WARNING:: CheckTimer: Requesting time from non-existing timer: MeshStabParams
WARNING:: CheckTimer: Requesting time from non-existing timer: LoadMesh
WARNING:: CheckLinearSolverOptions: Only MUMPS and CPardiso direct solver interface implemented in parallel, trying MUMPS!
WARNING:: CheckTimer: Requesting time from non-existing timer: MeshStabParams
WARNING:: CheckLinearSolverOptions: Only MUMPS and CPardiso direct solver interface implemented in parallel, trying MUMPS!
WARNING:: CheckLinearSolverOptions: Only MUMPS and CPardiso direct solver interface implemented in parallel, trying MUMPS!
WARNING:: CheckLinearSolverOptions: Only MUMPS and CPardiso direct solver interface implemented in parallel, trying MUMPS!
WARNING:: CheckLinearSolverOptions: Only MUMPS and CPardiso direct solver interface implemented in parallel, trying MUMPS!
WARNING:: CheckLinearSolverOptions: Only MUMPS and CPardiso direct solver interface implemented in parallel, trying MUMPS!
WARNING:: CheckLinearSolverOptions: Only MUMPS and CPardiso direct solver interface implemented in parallel, trying MUMPS!
WARNING:: CheckTimer: Requesting time from non-existing timer: LoadMesh
WARNING:: CheckTimer: Requesting time from non-existing timer: MeshStabParams
WARNING:: CheckLinearSolverOptions: Only MUMPS and CPardiso direct solver interface implemented in parallel, trying MUMPS!
WARNING:: CheckLinearSolverOptions: Only MUMPS and CPardiso direct solver interface implemented in parallel, trying MUMPS!
WARNING:: CheckLinearSolverOptions: Only MUMPS and CPardiso direct solver interface implemented in parallel, trying MUMPS!
WARNING:: CheckLinearSolverOptions: Only MUMPS and CPardiso direct solver interface implemented in parallel, trying MUMPS!
WARNING:: CheckTimer: Requesting time from non-existing timer: LoadMesh
WARNING:: CheckTimer: Requesting time from non-existing timer: MeshStabParams
WARNING:: CheckLinearSolverOptions: Only MUMPS and CPardiso direct solver interface implemented in parallel, trying MUMPS!
WARNING:: CheckLinearSolverOptions: Only MUMPS and CPardiso direct solver interface implemented in parallel, trying MUMPS!
WARNING:: CheckLinearSolverOptions: Only MUMPS and CPardiso direct solver interface implemented in parallel, trying MUMPS!
WARNING:: CheckTimer: Requesting time from non-existing timer: LoadMesh
WARNING:: CheckTimer: Requesting time from non-existing timer: MeshStabParams
WARNING:: CheckLinearSolverOptions: Only MUMPS and CPardiso direct solver interface implemented in parallel, trying MUMPS!
WARNING:: CheckLinearSolverOptions: Only MUMPS and CPardiso direct solver interface implemented in parallel, trying MUMPS!
WARNING:: CheckTimer: Requesting time from non-existing timer: LoadMesh
WARNING:: CheckTimer: Requesting time from non-existing timer: MeshStabParams
WARNING:: CheckLinearSolverOptions: Only MUMPS and CPardiso direct solver interface implemented in parallel, trying MUMPS!
WARNING:: CheckLinearSolverOptions: Only MUMPS and CPardiso direct solver interface implemented in parallel, trying MUMPS!
WARNING:: CheckTimer: Requesting time from non-existing timer: LoadMesh
WARNING:: CheckTimer: Requesting time from non-existing timer: MeshStabParams
WARNING:: CheckLinearSolverOptions: Only MUMPS and CPardiso direct solver interface implemented in parallel, trying MUMPS!
WARNING:: CheckLinearSolverOptions: Only MUMPS and CPardiso direct solver interface implemented in parallel, trying MUMPS!
WARNING:: CheckTimer: Requesting time from non-existing timer: LoadMesh
WARNING:: CheckTimer: Requesting time from non-existing timer: MeshStabParams
WARNING:: CheckLinearSolverOptions: Only MUMPS and CPardiso direct solver interface implemented in parallel, trying MUMPS!
WARNING:: CheckLinearSolverOptions: Only MUMPS and CPardiso direct solver interface implemented in parallel, trying MUMPS!
WARNING:: CheckTimer: Requesting time from non-existing timer: LoadMesh
WARNING:: CheckTimer: Requesting time from non-existing timer: MeshStabParams
WARNING:: CheckLinearSolverOptions: Only MUMPS and CPardiso direct solver interface implemented in parallel, trying MUMPS!
WARNING:: CheckLinearSolverOptions: Only MUMPS and CPardiso direct solver interface implemented in parallel, trying MUMPS!
WARNING:: CheckTimer: Requesting time from non-existing timer: LoadMesh
WARNING:: CheckTimer: Requesting time from non-existing timer: MeshStabParams
WARNING:: CheckLinearSolverOptions: Only MUMPS and CPardiso direct solver interface implemented in parallel, trying MUMPS!
WARNING:: CheckLinearSolverOptions: Only MUMPS and CPardiso direct solver interface implemented in parallel, trying MUMPS!
MAIN: 
MAIN: -------------------------------------
MAIN:  Time: 1/6   4201.59999999938
MAIN: -------------------------------------
MAIN: 
EffectivePressure: Constant >Gravity< not found. Setting to -9.746289e15
USF_WaterPressure: Constant >Gravity< not found. Setting to -9.746289e15
SSASolver-SSABasalSolver: Memory allocation done.
ComputeChange: NS (ITER=1) (NRM,RELC): (  232.26211      2.0000000     ) :: ssa
ComputeChange: NS (ITER=2) (NRM,RELC): (  232.28303     0.90064313E-04 ) :: ssa
ComputeChange: NS (ITER=3) (NRM,RELC): (  232.33935     0.24244137E-03 ) :: ssa
ComputeChange: NS (ITER=4) (NRM,RELC): (  232.33937     0.88433479E-07 ) :: ssa
ComputeChange: NS (ITER=5) (NRM,RELC): (  232.33937     0.14422521E-12 ) :: ssa
ComputeChange: NS (ITER=2) (NRM,RELC): (  824.46382      2.0000000     ) :: thickness
ComputeChange: NS (ITER=4) (NRM,RELC): (  824.46382      0.0000000     ) :: thickness
NUMERICAL ERROR:: SolveEquations: Coupled system did not converge
NUMERICAL ERROR:: SolveEquations: Coupled system did not converge
NUMERICAL ERROR:: SolveEquations: Coupled system did not converge
NUMERICAL ERROR:: SolveEquations: Coupled system did not converge
NUMERICAL ERROR:: SolveEquations: Coupled system did not converge
NUMERICAL ERROR:: SolveEquations: Coupled system did not converge
NUMERICAL ERROR:: SolveEquations: Coupled system did not converge
NUMERICAL ERROR:: SolveEquations: Coupled system did not converge
NUMERICAL ERROR:: SolveEquations: Coupled system did not converge
NUMERICAL ERROR:: SolveEquations: Coupled system did not converge
NUMERICAL ERROR:: SolveEquations: Coupled system did not converge
NUMERICAL ERROR:: SolveEquations: Coupled system did not converge
NUMERICAL ERROR:: SolveEquations: Coupled system did not converge
NUMERICAL ERROR:: SolveEquations: Coupled system did not converge
NUMERICAL ERROR:: SolveEquations: Coupled system did not converge
NUMERICAL ERROR:: SolveEquations: Coupled system did not converge
NUMERICAL ERROR:: SolveEquations: Coupled system did not converge
NUMERICAL ERROR:: SolveEquations: Coupled system did not converge
NUMERICAL ERROR:: SolveEquations: Coupled system did not converge
NUMERICAL ERROR:: SolveEquations: Coupled system did not converge
NUMERICAL ERROR:: SolveEquations: Coupled system did not converge
NUMERICAL ERROR:: SolveEquations: Coupled system did not converge
NUMERICAL ERROR:: SolveEquations: Coupled system did not converge
NUMERICAL ERROR:: SolveEquations: Coupled system did not converge
MAIN: 
MAIN: -------------------------------------
MAIN:  Time: 2/6   4201.69999999938
MAIN: Estimated time left:  1.3 minutes
MAIN: -------------------------------------
MAIN: 
EffectivePressure: Constant >Gravity< not found. Setting to -9.746289e15
ComputeChange: NS (ITER=1) (NRM,RELC): (  232.33813     0.53482411E-05 ) :: ssa
ComputeChange: NS (ITER=2) (NRM,RELC): (  232.33726     0.37523807E-05 ) :: ssa
ComputeChange: NS (ITER=3) (NRM,RELC): (  232.33509     0.93418787E-05 ) :: ssa
ComputeChange: NS (ITER=4) (NRM,RELC): (  232.33509     0.41450736E-09 ) :: ssa
ComputeChange: NS (ITER=2) (NRM,RELC): (  824.46367     0.17613883E-06 ) :: thickness
ComputeChange: NS (ITER=4) (NRM,RELC): (  824.46367      0.0000000     ) :: thickness
NUMERICAL ERROR:: SolveEquations: Coupled system did not converge
MAIN: 
MAIN: -------------------------------------
NUMERICAL ERROR:: SolveEquations: Coupled system did not converge
NUMERICAL ERROR:: SolveEquations: Coupled system did not converge
NUMERICAL ERROR:: SolveEquations: Coupled system did not converge
NUMERICAL ERROR:: SolveEquations: Coupled system did not converge
NUMERICAL ERROR:: SolveEquations: Coupled system did not converge
NUMERICAL ERROR:: SolveEquations: Coupled system did not converge
NUMERICAL ERROR:: SolveEquations: Coupled system did not converge
NUMERICAL ERROR:: SolveEquations: Coupled system did not converge
NUMERICAL ERROR:: SolveEquations: Coupled system did not converge
NUMERICAL ERROR:: SolveEquations: Coupled system did not converge
NUMERICAL ERROR:: SolveEquations: Coupled system did not converge
NUMERICAL ERROR:: SolveEquations: Coupled system did not converge
NUMERICAL ERROR:: SolveEquations: Coupled system did not converge
NUMERICAL ERROR:: SolveEquations: Coupled system did not converge
NUMERICAL ERROR:: SolveEquations: Coupled system did not converge
NUMERICAL ERROR:: SolveEquations: Coupled system did not converge
NUMERICAL ERROR:: SolveEquations: Coupled system did not converge
NUMERICAL ERROR:: SolveEquations: Coupled system did not converge
NUMERICAL ERROR:: SolveEquations: Coupled system did not converge
NUMERICAL ERROR:: SolveEquations: Coupled system did not converge
NUMERICAL ERROR:: SolveEquations: Coupled system did not converge
NUMERICAL ERROR:: SolveEquations: Coupled system did not converge
NUMERICAL ERROR:: SolveEquations: Coupled system did not converge
MAIN:  Time: 3/6   4201.79999999938
MAIN: Estimated time left: 31.8 seconds
MAIN: -------------------------------------
MAIN: 
EffectivePressure: Constant >Gravity< not found. Setting to -9.746289e15
ComputeChange: NS (ITER=1) (NRM,RELC): (  232.33393     0.49844228E-05 ) :: ssa
ComputeChange: NS (ITER=2) (NRM,RELC): (  232.33311     0.35208456E-05 ) :: ssa
ComputeChange: NS (ITER=3) (NRM,RELC): (  232.33106     0.88464615E-05 ) :: ssa
ComputeChange: NS (ITER=4) (NRM,RELC): (  232.33106     0.41055990E-09 ) :: ssa
ComputeChange: NS (ITER=2) (NRM,RELC): (  824.46353     0.17492349E-06 ) :: thickness
ComputeChange: NS (ITER=4) (NRM,RELC): (  824.46353      0.0000000     ) :: thickness
NUMERICAL ERROR:: SolveEquations: Coupled system did not converge
MAIN: 
MAIN: -------------------------------------
NUMERICAL ERROR:: SolveEquations: Coupled system did not converge
NUMERICAL ERROR:: SolveEquations: Coupled system did not converge
NUMERICAL ERROR:: SolveEquations: Coupled system did not converge
NUMERICAL ERROR:: SolveEquations: Coupled system did not converge
NUMERICAL ERROR:: SolveEquations: Coupled system did not converge
NUMERICAL ERROR:: SolveEquations: Coupled system did not converge
NUMERICAL ERROR:: SolveEquations: Coupled system did not converge
NUMERICAL ERROR:: SolveEquations: Coupled system did not converge
NUMERICAL ERROR:: SolveEquations: Coupled system did not converge
NUMERICAL ERROR:: SolveEquations: Coupled system did not converge
NUMERICAL ERROR:: SolveEquations: Coupled system did not converge
NUMERICAL ERROR:: SolveEquations: Coupled system did not converge
NUMERICAL ERROR:: SolveEquations: Coupled system did not converge
NUMERICAL ERROR:: SolveEquations: Coupled system did not converge
NUMERICAL ERROR:: SolveEquations: Coupled system did not converge
NUMERICAL ERROR:: SolveEquations: Coupled system did not converge
NUMERICAL ERROR:: SolveEquations: Coupled system did not converge
NUMERICAL ERROR:: SolveEquations: Coupled system did not converge
NUMERICAL ERROR:: SolveEquations: Coupled system did not converge
NUMERICAL ERROR:: SolveEquations: Coupled system did not converge
NUMERICAL ERROR:: SolveEquations: Coupled system did not converge
NUMERICAL ERROR:: SolveEquations: Coupled system did not converge
NUMERICAL ERROR:: SolveEquations: Coupled system did not converge
MAIN:  Time: 4/6   4201.89999999938
MAIN: Estimated time left: 16.8 seconds
MAIN: -------------------------------------
MAIN: 
EffectivePressure: Constant >Gravity< not found. Setting to -9.746289e15
ComputeChange: NS (ITER=1) (NRM,RELC): (  232.32995     0.47365916E-05 ) :: ssa
ComputeChange: NS (ITER=2) (NRM,RELC): (  232.32917     0.33632507E-05 ) :: ssa
ComputeChange: NS (ITER=3) (NRM,RELC): (  232.32718     0.85873586E-05 ) :: ssa
ComputeChange: NS (ITER=4) (NRM,RELC): (  232.32718     0.40233741E-09 ) :: ssa
ComputeChange: NS (ITER=2) (NRM,RELC): (  824.46339     0.17373574E-06 ) :: thickness
ComputeChange: NS (ITER=4) (NRM,RELC): (  824.46339      0.0000000     ) :: thickness
NUMERICAL ERROR:: SolveEquations: Coupled system did not converge
MAIN: 
MAIN: -------------------------------------
MAIN:  Time: 5/6   4201.99999999939
NUMERICAL ERROR:: SolveEquations: Coupled system did not converge
NUMERICAL ERROR:: SolveEquations: Coupled system did not converge
NUMERICAL ERROR:: SolveEquations: Coupled system did not converge
NUMERICAL ERROR:: SolveEquations: Coupled system did not converge
NUMERICAL ERROR:: SolveEquations: Coupled system did not converge
NUMERICAL ERROR:: SolveEquations: Coupled system did not converge
NUMERICAL ERROR:: SolveEquations: Coupled system did not converge
NUMERICAL ERROR:: SolveEquations: Coupled system did not converge
NUMERICAL ERROR:: SolveEquations: Coupled system did not converge
NUMERICAL ERROR:: SolveEquations: Coupled system did not converge
NUMERICAL ERROR:: SolveEquations: Coupled system did not converge
NUMERICAL ERROR:: SolveEquations: Coupled system did not converge
NUMERICAL ERROR:: SolveEquations: Coupled system did not converge
NUMERICAL ERROR:: SolveEquations: Coupled system did not converge
NUMERICAL ERROR:: SolveEquations: Coupled system did not converge
NUMERICAL ERROR:: SolveEquations: Coupled system did not converge
NUMERICAL ERROR:: SolveEquations: Coupled system did not converge
NUMERICAL ERROR:: SolveEquations: Coupled system did not converge
NUMERICAL ERROR:: SolveEquations: Coupled system did not converge
NUMERICAL ERROR:: SolveEquations: Coupled system did not converge
NUMERICAL ERROR:: SolveEquations: Coupled system did not converge
NUMERICAL ERROR:: SolveEquations: Coupled system did not converge
NUMERICAL ERROR:: SolveEquations: Coupled system did not converge
MAIN: Estimated time left: 10.4 seconds
MAIN: -------------------------------------
MAIN: 
EffectivePressure: Constant >Gravity< not found. Setting to -9.746289e15
ComputeChange: NS (ITER=1) (NRM,RELC): (  232.32596     0.52504808E-05 ) :: ssa
ComputeChange: NS (ITER=2) (NRM,RELC): (  232.32511     0.36655191E-05 ) :: ssa
ComputeChange: NS (ITER=3) (NRM,RELC): (  232.32302     0.89769908E-05 ) :: ssa
ComputeChange: NS (ITER=4) (NRM,RELC): (  232.32302     0.45098912E-09 ) :: ssa
ComputeChange: NS (ITER=2) (NRM,RELC): (  824.46324     0.17245846E-06 ) :: thickness
ComputeChange: NS (ITER=4) (NRM,RELC): (  824.46324      0.0000000     ) :: thickness
NUMERICAL ERROR:: SolveEquations: Coupled system did not converge
MAIN: 
MAIN: -------------------------------------
MAIN:  Time: 6/6   4202.09999999939
MAIN: Estimated time left:  5.0 seconds
NUMERICAL ERROR:: SolveEquations: Coupled system did not converge
NUMERICAL ERROR:: SolveEquations: Coupled system did not converge
NUMERICAL ERROR:: SolveEquations: Coupled system did not converge
NUMERICAL ERROR:: SolveEquations: Coupled system did not converge
NUMERICAL ERROR:: SolveEquations: Coupled system did not converge
NUMERICAL ERROR:: SolveEquations: Coupled system did not converge
NUMERICAL ERROR:: SolveEquations: Coupled system did not converge
NUMERICAL ERROR:: SolveEquations: Coupled system did not converge
NUMERICAL ERROR:: SolveEquations: Coupled system did not converge
NUMERICAL ERROR:: SolveEquations: Coupled system did not converge
NUMERICAL ERROR:: SolveEquations: Coupled system did not converge
NUMERICAL ERROR:: SolveEquations: Coupled system did not converge
NUMERICAL ERROR:: SolveEquations: Coupled system did not converge
NUMERICAL ERROR:: SolveEquations: Coupled system did not converge
NUMERICAL ERROR:: SolveEquations: Coupled system did not converge
NUMERICAL ERROR:: SolveEquations: Coupled system did not converge
NUMERICAL ERROR:: SolveEquations: Coupled system did not converge
NUMERICAL ERROR:: SolveEquations: Coupled system did not converge
NUMERICAL ERROR:: SolveEquations: Coupled system did not converge
NUMERICAL ERROR:: SolveEquations: Coupled system did not converge
NUMERICAL ERROR:: SolveEquations: Coupled system did not converge
NUMERICAL ERROR:: SolveEquations: Coupled system did not converge
NUMERICAL ERROR:: SolveEquations: Coupled system did not converge
MAIN: -------------------------------------
MAIN: 
EffectivePressure: Constant >Gravity< not found. Setting to -9.746289e15
ComputeChange: NS (ITER=1) (NRM,RELC): (  232.32206     0.41442785E-05 ) :: ssa
ComputeChange: NS (ITER=2) (NRM,RELC): (  232.32137     0.29778680E-05 ) :: ssa
ComputeChange: NS (ITER=3) (NRM,RELC): (  232.31956     0.77749908E-05 ) :: ssa
ComputeChange: NS (ITER=4) (NRM,RELC): (  232.31956     0.38819318E-09 ) :: ssa
ComputeChange: NS (ITER=2) (NRM,RELC): (  824.46310     0.17136332E-06 ) :: thickness
ComputeChange: NS (ITER=4) (NRM,RELC): (  824.46310      0.0000000     ) :: thickness
NUMERICAL ERROR:: SolveEquations: Coupled system did not converge
NUMERICAL ERROR:: SolveEquations: Coupled system did not converge
NUMERICAL ERROR:: SolveEquations: Coupled system did not converge
NUMERICAL ERROR:: SolveEquations: Coupled system did not converge
NUMERICAL ERROR:: SolveEquations: Coupled system did not converge
NUMERICAL ERROR:: SolveEquations: Coupled system did not converge
NUMERICAL ERROR:: SolveEquations: Coupled system did not converge
NUMERICAL ERROR:: SolveEquations: Coupled system did not converge
NUMERICAL ERROR:: SolveEquations: Coupled system did not converge
NUMERICAL ERROR:: SolveEquations: Coupled system did not converge
NUMERICAL ERROR:: SolveEquations: Coupled system did not converge
NUMERICAL ERROR:: SolveEquations: Coupled system did not converge
NUMERICAL ERROR:: SolveEquations: Coupled system did not converge
NUMERICAL ERROR:: SolveEquations: Coupled system did not converge
NUMERICAL ERROR:: SolveEquations: Coupled system did not converge
NUMERICAL ERROR:: SolveEquations: Coupled system did not converge
NUMERICAL ERROR:: SolveEquations: Coupled system did not converge
NUMERICAL ERROR:: SolveEquations: Coupled system did not converge
NUMERICAL ERROR:: SolveEquations: Coupled system did not converge
NUMERICAL ERROR:: SolveEquations: Coupled system did not converge
NUMERICAL ERROR:: SolveEquations: Coupled system did not converge
NUMERICAL ERROR:: SolveEquations: Coupled system did not converge
NUMERICAL ERROR:: SolveEquations: Coupled system did not converge
NUMERICAL ERROR:: SolveEquations: Coupled system did not converge
ElmerSolver: *** Elmer Solver: ALL DONE ***
ElmerSolver: The end
SOLVER TOTAL TIME(CPU,REAL):        29.92       57.04
ELMER SOLVER FINISHED AT: 2017/04/28 17:39:44
0

hola
/scratch/cnt0021/gge6066/imerino/ELMER_MISOMIP/PRUEBA/Results/Ice1r1/ice1r10002.pvtu
args
Interpolating Elmer to NEMO grid
           
Elmer grid is found in; 
        /scratch/cnt0021/gge6066/imerino/ELMER_MISOMIP/PRUEBA/Results/Ice1r1/ice1r10002.pvtu
350000 640000 0 80000 
OPEN NETCDF.....
NetCDF dims 242 x 42
Reading Netcdf

